<?xml version='1.0' encoding='utf-8'?>
<!DOCTYPE network SYSTEM "http://www.matsim.org/files/dtd/network_v2.dtd">
<network><attributes><attribute name="crs" class="java.lang.String">epsg:27700</attribute></attributes><nodes><node id="101982" x="528704.1425925883" y="182068.78193707118"/><node id="101986" x="528835.203274008" y="182006.27331298392"/><node id="101990" x="528610.5713256176" y="181809.83394514362"/><node id="101991" x="528573.7225767415" y="181929.18977432407"/><node id="101992" x="528469.9604166781" y="181897.73358912457"/><node id="101993" x="528505.6218637078" y="181778.56962587987"/><node id="101995" x="528328.9448847623" y="181736.08154371416"/><node id="101997" x="528548.7872448508" y="181643.57209612947"/><node id="101998" x="528652.8306586709" y="181675.0813145333"/><node id="101999" x="528807.3746873133" y="181722.01579690044"/><node id="102000" x="528957.2117533057" y="181766.94394714758"/><node id="102003" x="528344.7036729204" y="181583.810407567"/><node id="102005" x="528996.9705690385" y="181633.44338299363"/><node id="102010" x="528311.4082494398" y="181383.39807715826"/><node id="102018" x="528263.2915772933" y="181498.00926640077"/><node id="102020" x="528084.9193790277" y="181447.4088417217"/><node id="102022" x="528146.3605161806" y="181252.46911162353"/><node id="102025" x="528014.7737126334" y="181669.75936269056"/><node id="102030" x="527938.298280321" y="181404.27947333007"/><node id="102031" x="527842.024999733" y="181717.26389065327"/><node id="102032" x="527835.918371676" y="181373.89538629813"/><node id="102035" x="527679.8398032002" y="181195.83827807195"/><node id="102036" x="527720.1672664348" y="181751.6765165081"/><node id="102041" x="527909.0595181207" y="181147.6455623331"/><node id="102049" x="527803.1771632878" y="180976.92407854396"/><node id="102053" x="527904.723422696" y="180946.96432556037"/><node id="102054" x="527866.0062584978" y="180990.3885446036"/><node id="102056" x="527892.5847606886" y="181142.65755061607"/><node id="10365726" x="529452.9767625622" y="182401.60620030813"/><node id="10365728" x="529311.2012113511" y="182528.42174424592"/><node id="10365729" x="529404.1823096096" y="182590.6004738182"/><node id="10365730" x="529371.1584697525" y="182640.69031387963"/><node id="10365731" x="529276.286379741" y="182575.38169182325"/><node id="10365733" x="529431.0855361494" y="182537.4839431194"/><node id="10365737" x="529431.5823404053" y="182492.6523499071"/><node id="10365738" x="529670.5479810596" y="182539.84121287905"/><node id="103928" x="528729.7661048026" y="182428.65029393387"/><node id="104302" x="529816.4099838859" y="181817.1771137981"/><node id="104305" x="530456.5873726613" y="182232.27949387848"/><node id="104309" x="530877.0427565749" y="182192.28499425238"/><node id="104310" x="530908.1656383072" y="182137.73754434427"/><node id="104312" x="530993.7921536546" y="181974.85356042883"/><node id="104315" x="531138.7191846394" y="181607.20380156615"/><node id="105511" x="528910.3349017941" y="181753.14688075997"/><node id="10574746" x="530564.6725827297" y="180949.56313026528"/><node id="10574891" x="530066.6953816533" y="181247.26636238"/><node id="10616173" x="530553.194505412" y="181701.9337461738"/><node id="106201" x="528825.3664827911" y="182605.73189293436"/><node id="106203" x="528835.694683644" y="182381.31745005585"/><node id="106211" x="529372.1123782448" y="182100.9148419206"/><node id="106213" x="528926.4190418946" y="182383.9530355755"/><node id="10703275" x="530542.2048491515" y="182759.50633653265"/><node id="10703276" x="530566.3598066465" y="182717.0852093681"/><node id="10703277" x="530798.4846145416" y="182855.65554000012"/><node id="10703293" x="530917.9213481224" y="182414.80252441665"/><node id="107316" x="529361.6651091869" y="181641.23524924356"/><node id="107317" x="529306.3367667015" y="181717.5530537184"/><node id="107318" x="529393.4948047902" y="181776.7451557067"/><node id="107319" x="529447.2230212246" y="181698.68497659627"/><node id="107320" x="529575.9174303953" y="181784.17607187555"/><node id="107322" x="529652.0579172063" y="181354.85688430036"/><node id="107324" x="529683.3364370774" y="181288.9561634591"/><node id="107325" x="529643.1726800957" y="181270.98400875938"/><node id="107326" x="529661.2112508743" y="181230.93976700742"/><node id="107327" x="529680.7922720832" y="181190.58998559718"/><node id="107328" x="529696.1051342529" y="181197.2456133904"/><node id="107333" x="529023.3739725448" y="181234.16744255106"/><node id="107339" x="529134.0093471586" y="181521.23107246158"/><node id="107341" x="529192.3270555608" y="181665.8918718915"/><node id="107343" x="529019.542776424" y="181564.70297365583"/><node id="107345" x="529030.421910822" y="181528.87032054615"/><node id="107348" x="529161.1718028511" y="181701.6093447783"/><node id="107349" x="529089.1015369182" y="181662.40032420488"/><node id="107351" x="529256.8038834677" y="181787.43131059385"/><node id="107352" x="529206.4169021464" y="181853.54941753787"/><node id="107791" x="529975.8457133714" y="180874.61444065743"/><node id="107792" x="529923.2301704333" y="181031.8154487224"/><node id="107803" x="529874.9313875722" y="180914.79807008093"/><node id="107805" x="529865.573782522" y="180974.7704724968"/><node id="107806" x="529814.0500889253" y="180939.08094773325"/><node id="107807" x="529760.7122946419" y="180906.97325845668"/><node id="107824" x="529824.3236291062" y="181377.8270508793"/><node id="107828" x="530235.6863763905" y="181372.6522839418"/><node id="107829" x="530374.9681889869" y="181489.1363810951"/><node id="107830" x="530513.4440144959" y="181529.99125510914"/><node id="107831" x="530064.5016467869" y="181439.5737385208"/><node id="107835" x="530332.6727627771" y="181744.41062244738"/><node id="107836" x="530302.9718145574" y="181723.10715453775"/><node id="107837" x="530270.00257221" y="181697.4025403483"/><node id="107838" x="530231.0606137931" y="181669.60885186767"/><node id="107839" x="530092.3291582834" y="181847.3243703976"/><node id="107842" x="529869.4437073416" y="181742.90904576948"/><node id="107843" x="529932.1864720277" y="181788.54521884263"/><node id="107844" x="529877.5631506187" y="181862.51608591987"/><node id="107848" x="529759.3082895541" y="181663.1699073442"/><node id="107851" x="529926.6551330115" y="181662.51682727283"/><node id="107852" x="530114.8743133503" y="181587.18079135654"/><node id="107853" x="530011.7440880708" y="181536.73660261976"/><node id="107855" x="530576.4311543014" y="181786.45593453565"/><node id="107856" x="530697.6118985314" y="181843.21839693806"/><node id="107860" x="530384.3436997748" y="181895.9043568814"/><node id="107863" x="530383.8653834731" y="181779.28512874868"/><node id="107864" x="530243.7439493277" y="181952.88824867713"/><node id="107865" x="530183.7334667961" y="182026.20598506153"/><node id="107866" x="530654.7094125937" y="182530.4083827841"/><node id="107867" x="530623.1216305584" y="182599.17760144523"/><node id="107869" x="530482.4772211688" y="182643.9237630653"/><node id="107870" x="530330.0366676705" y="182598.55943992606"/><node id="107871" x="530314.9974649388" y="182643.9306397895"/><node id="107872" x="530354.5988550885" y="182564.026213962"/><node id="107873" x="530372.8426486583" y="182515.7885223357"/><node id="107875" x="530431.2698429682" y="182587.02572428173"/><node id="107876" x="530451.1167087415" y="182541.80054372252"/><node id="107877" x="530225.3073599826" y="182556.42574277206"/><node id="107878" x="530105.875332807" y="182478.50943753886"/><node id="107879" x="530135.372843193" y="182415.4812448626"/><node id="107881" x="530046.6422832209" y="182202.62910240132"/><node id="107882" x="530334.1669898124" y="182649.1294931916"/><node id="107884" x="530560.5209854689" y="182725.51458874595"/><node id="107889" x="530711.1294809823" y="182942.4507748054"/><node id="107890" x="530795.7004733329" y="182879.40832762403"/><node id="107891" x="530805.3376241445" y="182780.09664757265"/><node id="107895" x="530501.4205751083" y="182835.40640195372"/><node id="107976" x="530074.4060779449" y="182800.42810869892"/><node id="107978" x="529992.6502296046" y="182746.21308012493"/><node id="107981" x="530019.2786769473" y="182621.6194212534"/><node id="107986" x="529887.2126759258" y="182424.53054992575"/><node id="107987" x="529816.2244204523" y="182374.01024266327"/><node id="107988" x="529726.7710184866" y="182498.79146739846"/><node id="107989" x="529663.3655849631" y="182459.01595708926"/><node id="107990" x="529758.5439053485" y="182330.73002761975"/><node id="107991" x="529849.4842529339" y="182209.55922175443"/><node id="107992" x="529906.7913421805" y="182252.54156679363"/><node id="107993" x="529781.1125439453" y="182161.36535248562"/><node id="107994" x="529693.6729238755" y="182285.47538458242"/><node id="107995" x="529602.6735981846" y="182423.8505790343"/><node id="107996" x="529801.4966270599" y="182543.7198488823"/><node id="107999" x="530050.4355286066" y="182045.7706386128"/><node id="108002" x="529985.2007068072" y="181992.7025467931"/><node id="108006" x="529713.247863845" y="182084.01990563673"/><node id="108009" x="529535.1162808948" y="182207.0974493639"/><node id="108012" x="529485.3770706505" y="182277.2130174914"/><node id="108014" x="530058.0320436077" y="181889.4880572388"/><node id="108017" x="529825.2808690357" y="181932.95307943516"/><node id="108021" x="529448.7587764886" y="182330.69376386725"/><node id="108022" x="529464.0630988477" y="182162.14449712035"/><node id="108025" x="529665.1076864224" y="181880.54656611965"/><node id="108028" x="529775.6417901549" y="181787.4486170528"/><node id="108030" x="529694.6892524647" y="181902.23265898472"/><node id="108033" x="529732.7094294595" y="181929.99866403814"/><node id="108034" x="529651.463784916" y="182044.419720061"/><node id="108036" x="529612.4217006459" y="182017.81888367154"/><node id="108040" x="529327.455606558" y="182175.9461873994"/><node id="108043" x="529414.5968937903" y="182231.37747953355"/><node id="108044" x="529478.0549573824" y="181928.26508216956"/><node id="108045" x="529523.213594229" y="181862.85082426254"/><node id="108047" x="529145.3126052652" y="182142.51445899595"/><node id="108054" x="529057.1947154342" y="181088.63225745264"/><node id="108055" x="529116.9635558412" y="180993.39640401787"/><node id="108062" x="529444.6383486672" y="181314.78412431554"/><node id="108065" x="529976.804591364" y="181099.917746595"/><node id="108072" x="529328.4578763773" y="180987.43504905322"/><node id="108073" x="529424.4082062311" y="181039.95175501757"/><node id="108200" x="528351.4272019927" y="182170.0765807273"/><node id="108202" x="528486.4763456831" y="182214.42850019247"/><node id="108203" x="528364.9844579058" y="182081.04302455595"/><node id="108205" x="528516.6726280607" y="182106.82142678852"/><node id="108208" x="528232.1916799454" y="181813.44509077538"/><node id="108209" x="528059.069265961" y="181784.9766044849"/><node id="108210" x="528235.4488429042" y="181882.15049752424"/><node id="108211" x="528188.108074469" y="181561.20776514302"/><node id="108212" x="528318.1596123865" y="181829.15767593676"/><node id="108214" x="528141.4239997307" y="181547.3338020685"/><node id="108215" x="528135.2103329769" y="181703.98543757957"/><node id="108216" x="528092.135275396" y="181691.5715693194"/><node id="108224" x="528409.8289897211" y="181490.13769136893"/><node id="108229" x="528694.8146977508" y="181539.7656262283"/><node id="108234" x="528846.7353009165" y="181429.6697090885"/><node id="108236" x="528740.1326069711" y="181398.16974524048"/><node id="108239" x="528681.9501740667" y="181151.56801370258"/><node id="108252" x="528858.8179076333" y="180895.9103971371"/><node id="108257" x="528517.7300340543" y="180906.12375725684"/><node id="108258" x="528480.5941177586" y="181016.1258984675"/><node id="108259" x="528407.520596108" y="180991.3119329422"/><node id="108260" x="528450.7576760494" y="181006.04685896036"/><node id="108398" x="530773.661715221" y="181880.21646864357"/><node id="108404" x="530468.3098481238" y="181688.45877539826"/><node id="108895" x="530629.5558489189" y="180913.45195289835"/><node id="108896" x="530685.9827220822" y="181013.4383113233"/><node id="108899" x="530689.5009244601" y="181150.1323386908"/><node id="108901" x="530597.6120211313" y="181541.46772136557"/><node id="108902" x="530784.7280137234" y="181577.31562579132"/><node id="108903" x="530968.9385732918" y="181612.40572051023"/><node id="108905" x="530410.3277552617" y="181938.63389560167"/><node id="1089052858" x="529604.8982838882" y="181249.1545834454"/><node id="1089052872" x="529567.1866535348" y="181224.30197638494"/><node id="108906" x="530559.9657496321" y="182026.82503508317"/><node id="108909" x="530804.856117892" y="182288.53895932843"/><node id="109348" x="530320.9546000515" y="182317.0296496711"/><node id="109349" x="530367.4912101941" y="182203.92011985858"/><node id="109352" x="530914.0877448672" y="182572.70651675016"/><node id="109391" x="529344.9358858126" y="182480.67528649786"/><node id="109395" x="530771.6420234671" y="182663.54508479772"/><node id="109396" x="530700.4207912099" y="182633.31399713864"/><node id="1094124402" x="529901.0071373434" y="181086.0620212069"/><node id="109819" x="530755.4862412527" y="182118.4270666832"/><node id="109826" x="530731.5430026191" y="182256.85171140952"/><node id="109827" x="530650.8961477053" y="182224.45394259883"/><node id="109832" x="530139.3424244857" y="182701.60860083834"/><node id="109833" x="530196.8178259903" y="182603.3997838134"/><node id="109836" x="530472.346717268" y="180975.81242358394"/><node id="109971" x="527684.9367793165" y="182215.15017086017"/><node id="109972" x="527728.2999879372" y="182229.48190614278"/><node id="109981" x="527895.5839849887" y="182169.46291199903"/><node id="109984" x="528023.6221912788" y="182094.95138162072"/><node id="109985" x="527714.3709002174" y="182123.64353672392"/><node id="109994" x="527744.9680055549" y="182025.4008003531"/><node id="109995" x="527819.0859904344" y="182046.82704081282"/><node id="109997" x="527778.0735491181" y="182173.01549945795"/><node id="110004" x="527893.261160161" y="182069.26842679846"/><node id="110005" x="527779.8160242508" y="181913.02199634747"/><node id="110006" x="527798.6687175994" y="181856.76845767687"/><node id="110007" x="527821.6690672204" y="181784.1173168351"/><node id="110008" x="527987.5162014617" y="181762.74365661351"/><node id="110009" x="527966.7386697765" y="181830.55404684442"/><node id="110011" x="527926.7999832329" y="181959.3834773323"/><node id="110013" x="527995.4926371241" y="181981.2543027675"/><node id="110016" x="527680.4429702194" y="181879.66733895655"/><node id="110029" x="528056.2154585288" y="181032.36566110572"/><node id="110030" x="528207.1411055484" y="181054.70921153022"/><node id="110031" x="528218.5793688407" y="181014.4047797587"/><node id="110032" x="528302.1990065435" y="181041.99705182994"/><node id="110033" x="528374.8357342579" y="181090.4109989567"/><node id="110094" x="529722.0042529452" y="182649.29338087817"/><node id="110095" x="529801.0659699676" y="182696.92534116737"/><node id="110096" x="529567.4891222992" y="182481.51767476648"/><node id="110097" x="529760.9653148224" y="182593.80465667567"/><node id="110098" x="529767.3691919916" y="182584.9437395591"/><node id="110099" x="529838.2371947793" y="182640.8795747434"/><node id="110103" x="529891.3676532708" y="182665.1386556442"/><node id="110104" x="529574.6446987981" y="182471.20685261063"/><node id="110111" x="528960.5453273347" y="182083.03990170575"/><node id="110121" x="531064.1806150003" y="182211.49776309205"/><node id="110122" x="530943.1222087746" y="182237.46386843012"/><node id="110267" x="530321.1666218773" y="182495.45638749783"/><node id="110268" x="530347.38248409" y="182416.5104272791"/><node id="110269" x="530290.5097199897" y="182393.60834699223"/><node id="110270" x="530259.6293665441" y="182467.17155805218"/><node id="1102996994" x="529908.1285762871" y="181013.62520550593"/><node id="1103212861" x="529933.675377409" y="181046.10329675162"/><node id="1104448112" x="528131.1404450049" y="181461.5153686754"/><node id="1104473061" x="530456.2718794618" y="181676.02050636802"/><node id="1104473062" x="530433.1313345135" y="181713.13812913164"/><node id="1104496313" x="530549.4341198627" y="181759.1224868439"/><node id="1104496316" x="530536.2688392685" y="181755.1788580544"/><node id="1104496326" x="530544.3272376368" y="181720.9234361202"/><node id="1104496342" x="530601.735635728" y="181549.04039092874"/><node id="1104496344" x="530496.9756904566" y="181715.99040344649"/><node id="1104496346" x="530519.2815697477" y="181727.86908246856"/><node id="1122301113" x="528938.4029649039" y="180965.63987520942"/><node id="1126101190" x="529193.1763095881" y="181323.6629641666"/><node id="1145116925" x="530586.4805268153" y="182588.34294039756"/><node id="11506535" x="530910.8347577021" y="182047.8942431594"/><node id="11506538" x="530871.3502247551" y="182119.27396563964"/><node id="11506543" x="530927.7890771838" y="182098.98459411244"/><node id="11510323" x="530982.476494635" y="181999.3655399558"/><node id="11510324" x="530729.9398360222" y="181997.86848558334"/><node id="11510326" x="530878.2520457493" y="182328.5641113225"/><node id="11544693" x="530614.2688701216" y="181619.722966681"/><node id="11544695" x="530753.6038031077" y="181678.52231879754"/><node id="11544696" x="530623.8105450078" y="181683.88574998552"/><node id="11544697" x="530647.9847538936" y="181633.89850771037"/><node id="11544698" x="530725.8851739735" y="182029.45588305214"/><node id="1158837766" x="530809.2335735913" y="182747.40354295628"/><node id="1166056970" x="527699.0833527169" y="181048.63864744402"/><node id="1166234798" x="527856.020471487" y="182248.23979846743"/><node id="1166234800" x="527828.6191308886" y="182271.01804386004"/><node id="1166234804" x="527838.9339690646" y="182240.12072292366"/><node id="1166559044" x="531004.269313101" y="181449.47181987274"/><node id="1174906996" x="528930.5810232928" y="181050.08856403892"/><node id="11767206" x="530306.8425831626" y="181875.07688708586"/><node id="11767207" x="530421.9550254587" y="181918.91365830624"/><node id="11767210" x="530702.0824514726" y="182090.66903525835"/><node id="11863145" x="529561.5159350246" y="181804.46164543944"/><node id="11863146" x="529641.5900887983" y="181686.75997206842"/><node id="11863147" x="530644.763814742" y="182447.23996469384"/><node id="11863149" x="530618.3736532558" y="182512.2704567038"/><node id="11863161" x="530124.5688757555" y="182097.73222469504"/><node id="12026763" x="530549.1937974714" y="182184.78411306156"/><node id="12026764" x="530612.242338219" y="182060.1386378482"/><node id="12026767" x="530635.884273615" y="182002.17026315164"/><node id="1204707018" x="530152.2330135126" y="182115.02109422075"/><node id="12144878" x="530604.3295423298" y="182654.07701958856"/><node id="12150299" x="530688.8612624748" y="182334.21503116266"/><node id="12150301" x="530609.4532827993" y="182297.4097914999"/><node id="1230341245" x="530027.5026387711" y="182454.35864511313"/><node id="1230341610" x="529965.7012917342" y="182728.21994195518"/><node id="1230374638" x="530060.7352077331" y="182217.21103291592"/><node id="1230374646" x="530199.088373478" y="182246.97181667062"/><node id="1230393648" x="530077.5238637718" y="182323.05320505693"/><node id="1230997195" x="528422.0601102674" y="181091.5707563684"/><node id="1230997208" x="528204.7622649741" y="181065.06450921454"/><node id="1230997225" x="528527.9452708934" y="181108.93587429833"/><node id="1230997285" x="528208.7677251599" y="181047.75107032817"/><node id="1230997425" x="528372.177278083" y="181099.17906644358"/><node id="1230997444" x="528376.9153512482" y="181083.11939321348"/><node id="1230997445" x="528531.8438168541" y="181124.99130517902"/><node id="1230997467" x="528052.8496819469" y="181042.77404116804"/><node id="1230997478" x="528059.8339194129" y="181022.6758070595"/><node id="1230997489" x="528455.4023670307" y="181096.15226119698"/><node id="1230997557" x="528413.4705738086" y="180944.88262287318"/><node id="12443171" x="530955.470329956" y="181954.73705234932"/><node id="12443172" x="530779.1766278201" y="182275.70407102723"/><node id="1256495529" x="530691.991312609" y="182809.58281928964"/><node id="1256495533" x="530743.2954350617" y="182767.07106074592"/><node id="1256495535" x="530645.7204813887" y="182849.92109012784"/><node id="1256495536" x="530604.9895878828" y="182886.73006145167"/><node id="1256495538" x="530762.0204316643" y="182774.4077767597"/><node id="1256495540" x="530660.5248784891" y="182853.7069996058"/><node id="1256495541" x="530625.2007838325" y="182895.6401279947"/><node id="12689153" x="530229.4187557951" y="182056.7650310917"/><node id="12689154" x="530179.5605152186" y="182128.3734302185"/><node id="12689155" x="530119.5488795071" y="182243.04218762473"/><node id="12689157" x="530057.0496714006" y="182360.35189692833"/><node id="12689776" x="530824.1419643782" y="181949.87365016981"/><node id="12689777" x="530797.6154014487" y="182016.79155897535"/><node id="12689779" x="530740.6557098298" y="182120.1596474719"/><node id="12959447" x="530094.8265924519" y="182671.94802165427"/><node id="12959453" x="530186.1490503375" y="182528.12580041785"/><node id="1324710127" x="529351.0325683737" y="181066.44780989288"/><node id="13249075" x="530082.730009177" y="182791.9505756813"/><node id="13250138" x="529925.1571607372" y="181400.44505260693"/><node id="1330788629" x="529496.8417817142" y="180962.99139400164"/><node id="13349302" x="527895.0134707715" y="180981.31516733853"/><node id="13349587" x="527914.2727207628" y="181003.96572879172"/><node id="13355224" x="530325.3949566712" y="181273.51246864436"/><node id="13491058" x="530603.1352046314" y="181729.30052282196"/><node id="135791608" x="529097.6874752763" y="181896.0635762933"/><node id="1363700495" x="528953.0020351617" y="181619.61966054043"/><node id="1363723583" x="529983.4257422872" y="182750.82866761176"/><node id="1363723587" x="529981.239617007" y="182738.34312609507"/><node id="1413151217" x="530301.5817478553" y="181344.41928629193"/><node id="1427421930" x="528700.9633815293" y="182324.96849821863"/><node id="1427421955" x="528759.64196833" y="182180.76257498894"/><node id="1427421985" x="528732.0260551537" y="182334.81338171248"/><node id="1427449243" x="528722.9257220743" y="182596.41381402308"/><node id="1427449245" x="528721.000499412" y="182623.9056965956"/><node id="1427449262" x="528689.6165549094" y="182946.49916890787"/><node id="1448876379" x="529645.6461787857" y="182040.89959108707"/><node id="1455776376" x="529994.2831490758" y="182733.12423087558"/><node id="1455776397" x="529968.8918026895" y="182770.35300465865"/><node id="14725979" x="529579.919290747" y="181997.17151468573"/><node id="14727249" x="530139.6235501306" y="181554.13121239614"/><node id="14727254" x="530233.5545843665" y="181619.1643176037"/><node id="14728075" x="530767.9751560623" y="182006.74802908982"/><node id="14767049" x="530236.9819557463" y="182150.58713623375"/><node id="14776836" x="530904.409404111" y="182441.89531093196"/><node id="14776839" x="530769.2993675543" y="182332.57953562518"/><node id="14776841" x="530858.2317667796" y="182419.95230110933"/><node id="14790693" x="530507.2964505649" y="182564.03018646518"/><node id="14791174" x="529814.9535418458" y="181581.81288966018"/><node id="14791182" x="529956.8558555581" y="181619.83575667493"/><node id="14791186" x="529841.7352500563" y="181538.15360269463"/><node id="14791188" x="529691.557661029" y="181611.25461294712"/><node id="14791189" x="529722.9713333722" y="181633.29913677758"/><node id="14791190" x="529800.282962367" y="181511.7458150866"/><node id="14791193" x="529871.9754622765" y="181482.78755149106"/><node id="1490441420" x="529689.9042432001" y="181547.6514958592"/><node id="1490441421" x="529706.1345542714" y="181557.7579242555"/><node id="14954185" x="529964.3492779888" y="182713.78615762538"/><node id="14954215" x="530009.4584584426" y="182513.36299843772"/><node id="14958916" x="529965.430583094" y="182481.3570889028"/><node id="14958917" x="529919.1039711696" y="182544.63449745445"/><node id="14958918" x="529897.9665946867" y="182540.08796340466"/><node id="14958919" x="529842.4263866117" y="182632.5852863065"/><node id="14959003" x="529838.5004773487" y="182493.99027665297"/><node id="14959374" x="529994.6215705033" y="182662.40548055264"/><node id="1508437746" x="528342.3146290808" y="181519.25513857452"/><node id="1514726033" x="528731.4728466352" y="181975.86957362742"/><node id="1547268610" x="530902.9113896949" y="182602.10729621112"/><node id="1547268612" x="530907.5095634789" y="182606.83268309355"/><node id="1558358070" x="528213.4722779321" y="182267.45261753304"/><node id="1590219788" x="527876.8072241073" y="181251.77678128588"/><node id="1604752665" x="529991.6025314381" y="181572.34160092514"/><node id="1610951149" x="527955.8881282583" y="181349.50795765338"/><node id="1610951150" x="528100.4088824923" y="181397.52541644103"/><node id="1610964470" x="528176.8964670885" y="181808.3221202002"/><node id="1610964526" x="528149.3977381085" y="182029.38799109455"/><node id="1611022251" x="528168.2946280263" y="181874.9478896045"/><node id="1611022252" x="528198.2247687677" y="181878.37360285874"/><node id="1611022413" x="528183.0687424241" y="182004.46616547107"/><node id="1611082162" x="528716.2672535151" y="181694.30280966416"/><node id="1611082164" x="528760.6574761191" y="181708.19081024604"/><node id="1611082199" x="528708.3453165109" y="181819.03086271667"/><node id="1611082201" x="528705.291385182" y="181828.60106631264"/><node id="1611082203" x="528702.7552352767" y="181836.09241245646"/><node id="1611082205" x="528816.0461956068" y="182069.15889443946"/><node id="1611082208" x="528715.7864201653" y="182072.23714855337"/><node id="1611125269" x="528732.4069773781" y="181279.72186816443"/><node id="1611125273" x="528809.4920602253" y="181305.46587224066"/><node id="1611125318" x="528762.8503540418" y="181333.7161078938"/><node id="1611125463" x="528795.0175314075" y="181414.9944379095"/><node id="1611159798" x="528087.064760454" y="181440.24119571032"/><node id="1611159818" x="527915.160158896" y="181480.07577676128"/><node id="1611771529" x="530992.8241741884" y="181385.78210036375"/><node id="1611771530" x="530948.5246557598" y="181366.02363493992"/><node id="1611771532" x="530989.5709798962" y="181272.00627227704"/><node id="1612319339" x="527995.7760342911" y="181765.54442606785"/><node id="1612319349" x="528029.849605228" y="181776.47326142626"/><node id="1612472593" x="527946.3682439907" y="181896.82804246637"/><node id="1612472614" x="528015.5994005962" y="181914.4397200754"/><node id="1614926320" x="530638.8880944197" y="181041.47104808985"/><node id="1614926340" x="530370.0858623947" y="181143.35236158868"/><node id="1614926341" x="530586.4254897487" y="181162.23791238532"/><node id="1614926342" x="530340.6456407496" y="181175.0899620697"/><node id="1614926348" x="530308.126937724" y="181206.13675786805"/><node id="1614926358" x="530380.8834247838" y="181216.91618420236"/><node id="1614949585" x="530341.7547781137" y="181381.147121832"/><node id="1614949613" x="530298.4610427414" y="181426.86201334774"/><node id="1614978560" x="530302.081838583" y="181297.8405892548"/><node id="1614978621" x="530576.8274248724" y="181393.9033903911"/><node id="16153704" x="530865.3588975774" y="182542.6077694493"/><node id="16153710" x="530810.4404617567" y="182735.03832689906"/><node id="16153711" x="530766.4782408655" y="182716.9142738302"/><node id="1616122139" x="530203.0620398731" y="181103.86240418442"/><node id="1616122145" x="530256.5921065537" y="181153.75073943508"/><node id="1616122178" x="530232.2897525224" y="181184.16290962603"/><node id="1616122237" x="530203.1317875204" y="181210.88992595376"/><node id="1616122253" x="530105.953345623" y="181313.59059148643"/><node id="1619316041" x="528251.5309303582" y="181815.1349891756"/><node id="1619316059" x="528309.7579331538" y="181821.81277217972"/><node id="1619316122" x="528396.6287644263" y="181877.05212605273"/><node id="1619464560" x="528396.3513181042" y="181597.9340996517"/><node id="1619464655" x="528379.8507776017" y="181740.76141018077"/><node id="1619500281" x="528337.7129822163" y="181549.99543780996"/><node id="1619500320" x="528391.4406755936" y="181641.440920998"/><node id="1619500355" x="528468.1966883498" y="181663.8333548475"/><node id="1619500373" x="528387.4250512555" y="181677.0030754673"/><node id="1619500377" x="528424.066094571" y="181687.69899507612"/><node id="1619500438" x="528457.2728300649" y="181697.484923343"/><node id="1619500464" x="528330.4667456097" y="181722.27738234494"/><node id="1619500479" x="528410.1484629601" y="181748.6263751862"/><node id="1619500481" x="528436.7972624672" y="181756.9334058619"/><node id="1619527465" x="528354.5593254959" y="181511.07415274787"/><node id="1619527484" x="528351.1776138694" y="181529.7941879126"/><node id="1619527487" x="528350.1290537863" y="181541.07323086588"/><node id="1619527499" x="528348.6476746706" y="181559.31827725726"/><node id="1620855408" x="528287.8195768348" y="181343.1664197105"/><node id="1630526800" x="529739.6309779485" y="182048.7736235754"/><node id="16350647" x="530884.1111454741" y="182841.9820689743"/><node id="16350652" x="530880.340824239" y="182818.60567088326"/><node id="16350655" x="530935.4458126547" y="182837.91935474152"/><node id="16350665" x="530934.6256258917" y="182813.1946077241"/><node id="1635864449" x="527789.9260872765" y="181290.17300532543"/><node id="1635864464" x="527780.1479372068" y="181311.82591146533"/><node id="1635864465" x="527817.5794087298" y="181323.2604515602"/><node id="1635864466" x="527716.103400141" y="181338.3126475594"/><