<?xml version='1.0' encoding='utf-8'?>
<!DOCTYPE network SYSTEM "http://www.matsim.org/files/dtd/network_v2.dtd">
<network><nodes><node id="5221390331412168707" x="528884.6697894641" y="182189.13519458636"/><node id="5221390687278104581" x="529130.0564908881" y="181516.5746833643"/><node id="5221366126210572295" x="529599.7741139425" y="180750.28161170712"/><node id="5221390715213897737" x="530114.9364175503" y="182110.78945169633"/><node id="5221390314759405579" x="528552.7159520291" y="181631.63502614375"/><node id="5221390692692017165" x="529371.9839678084" y="181634.56414394913"/><node id="5221366533794947087" x="528113.0320825737" y="181104.90043637308"/><node id="5221390740841185297" x="530498.9931723203" y="181968.19497664657"/><node id="5221390316643008531" x="528839.0297690196" y="181663.4701510411"/><node id="5221390730983825433" x="530320.8091826474" y="181278.36845602829"/><node id="5221366087980449819" x="530494.3769313244" y="180994.04317403334"/><node id="5221390668496617503" x="529413.7366212112" y="182380.70283072535"/><node id="5221390706591776799" x="529651.46280437" y="182044.41199129983"/><node id="5221390816186679327" x="530909.3369636639" y="182402.12559147849"/><node id="5221390732867379237" x="530563.0935587691" y="181424.3105215683"/><node id="5221390668059861029" x="529421.9804452797" y="182399.7729862614"/><node id="5221390688502743083" x="529227.7722171635" y="181280.47176609217"/><node id="5221390302469611565" x="528519.7180928639" y="182102.54395121732"/><node id="5221390823547363375" x="530876.1669320567" y="181700.89473322517"/><node id="5221390715204116529" x="530134.6380959491" y="182105.09708869987"/><node id="5221390292706476083" x="527977.7448590713" y="181759.81226300081"/><node id="5221390295604731955" x="527841.5305062886" y="182207.5022639759"/><node id="5221390300006268981" x="528411.1106081537" y="182090.56895691564"/><node id="5221390664938463283" x="529838.4978580346" y="182493.99043439125"/><node id="5221366499700129847" x="528913.7690999118" y="181032.51949506818"/><node id="5221390338980929591" x="528666.9341015639" y="182730.46740487253"/><node id="5221366116418437177" x="529771.1935573722" y="180444.74903195899"/><node id="5221390675888857143" x="529240.7752521895" y="182373.1549698001"/><node id="5221390815615696951" x="530882.5055953637" y="182252.8486896584"/><node id="5221390809276006459" x="530914.8569897201" y="182797.72611235338"/><node id="5221390300934021181" x="528473.434942409" y="182256.1309937535"/><node id="5221390311898177599" x="528545.5344308126" y="181338.99151417136"/><node id="5221390734542594111" x="530715.6269383102" y="181485.12210096192"/><node id="5221390690532130879" x="529375.2172395113" y="181311.8846665593"/><node id="5221390723212345413" x="530067.8517341393" y="181297.7688410037"/><node id="5221390691580829767" x="529488.4213768552" y="181424.17541264783"/><node id="5221390670637244487" x="529444.4167384047" y="182746.02075140242"/><node id="5221390735060762699" x="530662.7803065387" y="181551.57731844997"/><node id="5221366086080004175" x="530638.8881359126" y="181041.4671007736"/><node id="5221366499195240527" x="528947.673962984" y="181043.81715815346"/><node id="5221366089500926033" x="530336.2055454496" y="181100.60935112293"/><node id="5221390741983567951" x="530355.8949331262" y="182221.29932672583"/><node id="5221390337709277269" x="528817.0618721443" y="182779.83253671415"/><node id="5221390708680695893" x="529671.1820883306" y="182319.1173648624"/><node id="5221390816210550869" x="530912.8536645095" y="182402.8912284493"/><node id="5221390291109167197" x="528162.0553195669" y="181928.24508952227"/><node id="5221390331260657757" x="528904.6569457483" y="182214.31032103283"/><node id="5221366096586268769" x="530074.796995732" y="181000.2679419975"/><node id="5221390252998426723" x="528153.467292357" y="182351.47408795275"/><node id="5221390319586336867" x="528869.1437650536" y="181335.8649778572"/><node id="5221366499810861157" x="528922.7072770774" y="181040.76973966468"/><node id="5221390683549818979" x="529262.3916664403" y="181897.1777048912"/><node id="5221390291339198569" x="528117.638275378" y="182029.87325243902"/><node id="5221390723297804393" x="530100.6037456568" y="181352.36066468706"/><node id="5221390338624176235" x="528710.5204602806" y="182866.51721256715"/><node id="5221390299369406577" x="528270.7567399126" y="182074.619969083"/><node id="5221390321785978993" x="529072.7246993532" y="181386.5385697285"/><node id="5221390659769475187" x="529549.7061545667" y="182828.96886882785"/><node id="5221366095163572341" x="530256.5933344946" y="181153.74476534798"/><node id="5221390254257528949" x="528025.9220399422" y="182626.15697786096"/><node id="5221390723931578485" x="530153.8156253388" y="181460.01357384812"/><node id="5221390321570971765" x="529074.773603112" y="181244.3105826783"/><node id="5221366087093919865" x="530586.4264282907" y="181162.23112761904"/><node id="5221366098228797561" x="529941.9576698984" y="181056.70539674815"/><node id="5221366095707390075" x="530147.9082007842" y="181162.18160973373"/><node id="5221390345481322619" x="528344.7055325535" y="182556.6577375107"/><node id="5221390716209692795" x="530220.7778311262" y="181980.55132126325"/><node id="5221390691366150273" x="529439.1453633189" y="181434.771603796"/><node id="5221390668038873217" x="529443.7966312798" y="182374.74878966575"/><node id="5221390721985855617" x="529979.6320471076" y="181414.62344635424"/><node id="5221390821368144001" x="530814.3638522688" y="182109.4086361223"/><node id="5221390824930582661" x="530792.6290503583" y="181514.0218515229"/><node id="5221390730435010695" x="530376.069385775" y="181493.52515098255"/><node id="5221390283682586765" x="527893.6969895315" y="181392.0589626151"/><node id="5221390667686011025" x="529556.24755331" y="182473.25190070173"/><node id="5221366097819271315" x="529985.4306860772" y="181170.90687748586"/><node id="5221365994718838931" x="530780.3185679337" y="181217.19093549886"/><node id="5221390681699639443" x="529434.910081616" y="182000.3152004105"/><node id="5221390747642863769" x="530587.3048538328" y="182709.2927918994"/><node id="5221366500078919835" x="528949.2629227719" y="180931.2862774774"/><node id="5221390747571151005" x="530645.1702725018" y="182730.8895177138"/><node id="5221390645815074975" x="529244.8664236446" y="182958.19364754885"/><node id="5221390660742742175" x="529594.9472025323" y="182725.50415871822"/><node id="5221390811371929761" x="530703.4880317515" y="182814.07135604997"/><node id="5221390290310340771" x="528202.4947528378" y="181810.69228278304"/><node id="5221390691550142627" x="529468.6015849354" y="181432.16687528224"/><node id="5221390718591082661" x="529980.0304770244" y="181992.25349120144"/><node id="5221390696507867305" x="529541.2557464492" y="181334.6123365127"/><node id="5221390663897120937" x="529681.864467971" y="182533.72037749668"/><node id="5221390724856037547" x="530170.8150431785" y="181337.80244879407"/><node id="5221390688593060011" x="529209.5822222679" y="181206.85641900386"/><node id="5221390668043223211" x="529434.7965449066" y="182382.8584620562"/><node id="5221390729922683055" x="530403.9170403722" y="181652.38300393615"/><node id="5221390663668629679" x="529702.360250795" y="182675.99159083003"/><node id="5221390643232899249" x="529161.9423327377" y="183448.54623982066"/><node id="5221390826056818867" x="530855.4165457435" y="181252.26764797635"/><node id="5221390322306949299" x="529038.8314858144" y="181497.66711159877"/><node id="5221390326799384759" x="528832.1913286364" y="181874.76327086618"/><node id="5221390321255366839" x="529018.7236328304" y="181293.74419207464"/><node id="5221390704290169017" x="529783.1026419537" y="181863.45524457376"/><node id="5221390758627377337" x="529994.2819683105" y="182733.124128065"/><node id="5221390251120410811" x="528086.8881582661" y="182714.6503658155"/><node id="5221390294983663805" x="527896.5411941869" y="182057.6985548401"/><node id="5221390715651104957" x="530189.6717932539" y="182018.58506380016"/><node id="5221390705377140933" x="529497.9734189895" y="181898.59009623295"/><node id="5221390327676969163" x="528752.1825259344" y="181981.996816597"/><node id="5221390252682576075" x="528240.5681788365" y="182432.4922835675"/><node id="5221390267129471181" x="527805.8539526295" y="182322.531457991"/><node id="5221390330200137933" x="528723.8157892983" y="182329.99649355328"/><node id="5221390328897298635" x="528842.0412146933" y="182183.44436366524"/><node id="5221390759597326543" x="529863.2883540024" y="182927.72589720297"/><node id="5221390303980601553" x="528570.2688175291" y="181940.47169668332"/><node id="5221390335389810897" x="528978.577253181" y="182701.20404547"/><node id="5221390291490013395" x="528053.0361442536" y="182010.5047134034"/><node id="5221390752216326351" x="530334.1684713433" y="182649.12277007406"/><node id="5221390733366935765" x="530620.1224107445" y="181295.24113566522"/><node id="5221390737377747155" x="530685.5889326786" y="182014.34732446558"/><node id="5221390318296367319" x="528763.0132848169" y="181380.753166508"/><node id="5221390735784214737" x="530564.1662232024" y="181678.0866523002"/><node id="5221390667971174617" x="529467.3906144579" y="182416.332764734"/><node id="5221390806386876627" x="530947.1085012176" y="182545.01810915535"/><node id="5221390818418884825" x="530954.7441004144" y="182048.6790649779"/><node id="5221366087203774685" x="530528.980536075" y="181191.61495285778"/><node id="5221390645755265245" x="529201.1757201882" y="183004.5841917068"/><node id="5221390279660363999" x="527767.4581311403" y="181595.2525495204"/><node id="5221390702256103647" x="529869.4457869243" y="181742.9091550124"/><node id="5221390660267188447" x="529520.2955406544" y="182674.36339776195"/><node id="5221390810100023521" x="530795.4736405753" y="182848.0192707865"/><node id="5221390758641688803" x="530006.5426672894" y="182741.33319638798"/><node id="5221390735700730083" x="530603.1376571916" y="181729.29867645894"/><node id="5221390695969358051" x="529502.732484402" y="181428.42242623644"/><node id="5221390267182719207" x="527828.620683873" y="182271.0117867625"/><node id="5221390303987122407" x="528586.4423335626" y="181932.94238105934"/><node id="5221366099278487785" x="530065.31901254" y="180885.74852787796"/><node id="5221390758761005287" x="529956.0683342962" y="182707.99363034405"/><node id="5221390677117968615" x="529085.154910608" y="182234.09726590617"/><node id="5221390722368618731" x="529917.5425382241" y="181271.2313984118"/><node id="5221366130122662127" x="529314.1423015961" y="181170.9233118348"/><node id="5221390331461665007" x="528895.2635160272" y="182169.38421281875"/><node id="5221390285759217905" x="528075.7201513946" y="181444.44663925597"/><node id="5221390295289315569" x="527901.8137242689" y="182178.32564656582"/><node id="5221390332478152947" x="529048.4574980763" y="182237.5220568856"/><node id="5221390735145525491" x="530612.0395659293" y="181554.71616729943"/><node id="5221390701076909491" x="529697.7811977647" y="181602.27355310606"/><node id="5221390678708363509" x="529262.6241695606" y="182322.79717517865"/><node id="5221390732239102199" x="530417.8197864984" y="181486.57922221266"/><node id="5221390699165819119" x="529825.7856870233" y="181325.42862817104"/><node id="5221366535357227257" x="528029.1398707256" y="181120.3964778884"/><node id="5221390284744147193" x="527994.4573553726" y="181286.2490402779"/><node id="5221390358901072125" x="528623.7562129936" y="183456.22818161192"/><node id="5221366125998448895" x="529629.9705833832" y="180654.6373724775"/><node id="5221366498026037503" x="529063.8112013568" y="180876.63475896022"/><node id="5221390725646213377" x="530225.0696652435" y="181391.20593965263"/><node id="5221390320282706183" x="528958.80078413" y="181477.1375036541"/><node id="5221390718570463495" x="529958.9838029478" y="182012.34317050572"/><node id="5221365994779230477" x="530760.3381647978" y="181185.9143931297"/><node id="5221390671519613197" x="529286.4137405123" y="182911.5216295463"/><node id="5221390300006416655" x="528411.5130995548" y="182093.27579459647"/><node id="5221390684040978703" x="529204.096713514" y="181980.28748833516"/><node id="5221390227149512977" x="527367.7575665424" y="182985.93626039207"/><node id="5221390732436791575" x="530521.8413568732" y="181517.395552587"/><node id="5221390320279830809" x="528956.1787668386" y="181475.76267837937"/><node id="5221390660682760475" x="529586.7309457012" y="182693.86418059788"/><node id="5221390688008364317" x="529101.2205413863" y="181253.11983307567"/><node id="5221390823636648221" x="530831.0571264907" y="181733.80449767725"/><node id="5221366125104660767" x="529677.5830066323" y="180890.52286589798"/><node id="5221390753962074401" x="530263.4717087429" y="182458.130806648"/><node id="5221390726010167587" x="530285.9594226453" y="181549.42924547195"/><node id="5221390688022503715" x="529108.5326760946" y="181247.59834277257"/><node id="5221366493617881381" x="528902.932313772" y="180506.09514091822"/><node id="5221366097700602151" x="530003.6061283363" y="181135.37145136588"/><node id="5221390721171415335" x="529994.9554733192" y="181531.72985848965"/><node id="5221390811723161897" x="530753.1319489932" y="182710.28089243686"/><node id="5221390731850228007" x="530477.3996978309" y="181368.77127868717"/><node id="5221390741960155431" x="530345.4260813267" y="182248.5612828958"/><node id="5221390668504015143" x="529398.1295001527" y="182383.58820173185"/><node id="5221390715276067111" x="530111.6567346628" y="182088.294001705"/><node id="5221390668892791085" x="529270.048716533" y="182492.8987948682"/><node id="5221390675052142903" x="529183.6485998234" y="182618.27655240888"/><node id="5221390721195254071" x="529967.9501119815" y="181519.95945241972"/><node id="5221390823925948729" x="530902.57984803" y="181615.7476747617"/><node id="5221366499772997947" x="528937.1126626087" y="180979.61457896774"/><node id="5221390677065834811" x="529087.7211670226" y="182261.438792627"/><node id="5221390683673493821" x="529247.9010441623" y="181996.34717812802"/><node id="5221390729051595073" x="530480.3939052292" y="181699.6211508487"/><node id="5221390666755948867" x="529563.1729585007" y="182647.71775527723"/><node id="5221390671325724995" x="529323.3878074767" y="182873.71498256997"/><node id="5221390340076749125" x="528794.4949703071" y="182605.00740915764"/><node id="5221390662082707781" x="529743.9667410027" y="182943.81978784216"/><node id="5221390328837349703" x="528862.3988132059" y="182141.80418250983"/><node id="5221390732801761607" x="530582.343975312" y="181380.7879259704"/><node id="5221366499538248011" x="528908.8799932173" y="181129.66355790023"/><node id="5221390325341135181" x="528980.077137618" y="182001.62336470955"/><node id="5221390814926913869" x="530795.474213291" y="182117.81903214962"/><node id="5221390699243413839" x="529835.8554243204" y="181293.22334654705"/><node id="5221390823593926991" x="530861.7757865661" y="181699.4213915831"/><node id="5221366498886173009" x="529040.277951024" y="181129.55887831684"/><node id="5221390313000927569" x="528677.1026440221" y="181261.872063656"/><node id="5221390317109707093" x="528868.4854673226" y="181572.14055513794"/><node id="5221390711181615445" x="529966.6695651389" y="182315.4004688668"/><node id="5221390285186802007" x="528051.3519284114" y="181304.45000896842"/><node id="5221390671343968599" x="529338.6429694204" y="182862.45466576813"/><node id="5221390324852285785" x="529026.1108966494" y="181870.34182218253"/><node id="5221390667157848409" x="529513.7643311417" y="182651.8308996308"/><node id="5221390269939376475" x="527819.7291265553" y="181790.2886618146"/><node id="5221390732240806235" x="530416.387048052" y="181490.74415483442"/><node id="5221390306831270237" x="528316.7810219405" y="181885.22594071878"/><node id="5221390730539680093" x="530362.1695504173" y="181482.14863962785"/><node id="5221366500044472671" x="528995.8443916427" y="180905.23912399635"/><node id="5221390327248200031" x="528699.3794672095" y="181802.0174989389"/><node id="5221390284298658145" x="527892.0516270086" y="181203.31697286887"/><node id="5221390681579790689" x="529441.2997842996" y="182054.23648595804"/><node id="5221390663445938527" x="529709.0097313522" y="182757.18037320208"/><node id="5221390678502809953" x="529200.9387566013" y="182306.23024028091"/><node id="5221390705150173541" x="529536.4600219175" y="181826.91009265493"/><node id="5221390724039999841" x="530188.6331656104" y="181486.0020403263"/><node id="5221390321029448043" x="528971.6499734785" y="181227.67591501703"/><node id="5221390330700415341" x="528844.079070348" y="182271.33066547342"/><node id="5221390823578329453" x="530845.6657765096" y="181697.05309544102"/><node id="5221390693537677679" x="529437.0356208327" y="181691.692484055"/><node id="5221390287086600563" x="528211.2162399808" y="181239.64482436143"/><node id="5221390251385266547" x="528032.1022651971" y="182644.15366983408"/><node id="5221390683833606521" x="529240.4054465579" y="182006.97911318258"/><node id="5221390281435529595" x="527829.915358854" y="181713.48034070426"/><node id="5221390292102660475" x="528104.2315969153" y="181798.88441161858"/><node id="5221390818673303933" x="530985.5899895804" y="181992.18700490496"/><node id="5221390735284265345" x="530536.470532631" y="181534.88845581922"/><node id="5221366535945044355" x="527904.6124338217" y="181106.7206798278"/><node id="5221390303990743431" x="528575.9016634449" y="181922.0408232673"/><node id="5221390693522407815" x="529453.4921317602" y="181702.46079972782"/><node id="5221390321179009419" x="528987.2445760986" y="181324.7039647564"/><node id="5221390733846184333" x="530705.1505371946" y="181263.85260569298"/><node id="5221390328918155663" x="528824.3017555738" y="182208.49898287427"/><node id="5221366542494466455" x="527681.4997437221" y="181081.756001235"/><node id="5221366498287935895" x="529007.1760658037" y="180942.04381875397"/><node id="5221366499819790745" x="528944.6898099589" y="181036.36329945107"/><node id="5221366533691982233" x="528165.40809966" y="181167.53336351027"/><node id="5221390256376635803" x="527667.9393981745" y="182345.05222708243"/><node id="5221390319023374747" x="528777.4360927707" y="181308.60812616488"/><node id="5221365994881401245" x="530751.8538884498" y="181175.38253418065"/><node id="5221390269110387095" x="527742.8354654182" y="182031.78875619924"/><node id="5221390318301602207" x="528760.132349648" y="181366.63426280068"/><node id="5221390269161939359" x="527761.421521127" y="181972.13199576212"/><node id="5221390269906002337" x="527804.1802664953" y="181839.75273512147"/><node id="5221390687638626723" x="529168.467900436" y="181402.75770393404"/><node id="5221390675751313829" x="529245.2972855846" y="182456.03194485774"/><node id="5221390667587551653" x="529496.745526206" y="182505.71831573488"/><node id="5221390726809477541" x="530142.3950286413" y="181606.00633291842"/><node id="5221390661207237029" x="529558.1246931176" y="182826.39571657602"/><node id="5221390328084840873" x="528726.8045662415" y="181991.6580173109"/><node id="5221390814341259691" x="530780.0582774617" y="182319.2765225644"/><node id="5221366128944480689" x="529431.6546663108" y="180981.09650504083"/><node id="5221366120366391729" x="529844.328686712" y="180958.53716931457"/><node id="5221390690365931953" x="529381.5447429748" y="181202.33530067746"/><node id="5221390330355147185" x="528789.7942724335" y="182351.7066579027"/><node id="5221390330495705523" x="528768.2239139748" y="182214.0275219517"/><node id="5221390267866603957" x="527819.0837663889" y="182046.82486369158"/><node id="5221390691068010937" x="529474.6733027245" y="181320.83250237734"/><node id="5221390821917598137" x="530706.7181186859" y="182079.008501424"/><node id="5221366533441388989" x="528204.7637111603" y="181065.05601660133"/><node id="5221390723438002621" x="530058.0529629783" y="181374.61899000907"/><node id="5221366090559758783" x="530408.8690654952" y="180928.9891141274"/><node id="5221390724491313597" x="530125.9414514604" y="181330.25683711708"/><node id="5221366497056448961" x="528987.1089166345" y="180824.24605281278"/><node id="5221390324633739713" x="528984.4665464533" y="181839.91651458258"/><node id="5221390267317723585" x="527835.4672944943" y="182200.4272583727"/><node id="5221366134281929157" x="529287.0057474164" y="180713.0686470131"/><node id="5221390820270383557" x="530947.1715259356" y="181950.73590513773"/><node id="5221366499822141897" x="528946.6009477268" y="181038.62007492187"/><node id="5221366129281409481" x="529474.3858837992" y="181063.3772623365"/><node id="5221366103300719049" x="530234.8528568316" y="180513.47334557382"/><node id="5221390698600325579" x="529711.1260866077" y="181363.87131359655"/><node id="5221366097266704845" x="530072.679906483" y="181185.81348739786"/><node id="5221390735889850825" x="530541.8004228908" y="181739.60138216545"/><node id="5221366501663097295" x="528694.0635380745" y="181154.4169243694"/><node id="5221390668492898767" x="529406.7654116428" y="182384.53837486578"/><node id="5221366499805594065" x="528931.7234374289" y="181031.24287879892"/><node id="5221390758637691225" x="529995.6105013718" y="182748.41738003795"/><node id="5221366089657737683" x="530384.2508061834" y="181068.71982104756"/><node id="5221390269397508563" x="527809.8354156445" y="181937.45463790465"/><node id="5221390821587878357" x="530777.3307274996" y="181983.2016346068"/><node id="5221366533722538455" x="528147.6362419933" y="181161.85312355537"/><node id="5221366096015876569" x="530140.84786761" y="181003.34018024913"/><node id="5221390323041468889" x="528911.0452877197" y="181533.4491785161"/><node id="5221390281508110811" x="527891.4644958354" y="181732.3986879465"/><node id="5221390690763194841" x="529425.2381617886" y="181223.60277377814"/><node id="5221390298238403037" x="528185.6012437306" y="182194.01690251386"/><node id="5221390691965419995" x="529406.2845953857" y="181605.92059312516"/><node id="5221390757921300957" x="530004.5334804102" y="182602.52088117116"/><node id="5221390281441509857" x="527839.4526214907" y="181725.71094320674"/><node id="5221390695021371875" x="529674.6465444111" y="181635.89053949242"/><node id="5221390306962235879" x="528318.1570687807" y="181829.15263834555"/><node id="5221390734230536679" x="530620.0380376324" y="181415.04858115554"/><node id="5221390670511137257" x="529358.1052766729" y="182805.52011096972"/><node id="5221390311918780909" x="528534.0703240423" y="181335.33111796278"/><node id="5221390298095641071" x="528237.5034190759" y="182177.04622819083"/><node id="5221390297268593141" x="528087.4743752877" y="182089.68718950386"/><node id="5221390663255597557" x="529721.8904124788" y="182725.04556832765"/><node id="5221390680366465527" x="529367.3252126271" y="182108.61314028886"/><node id="5221390302072701433" x="528656.0731747799" y="182160.74973506952"/><node id="5221390691403760121" x="529397.6706307392" y="181422.20430539863"/><node id="5221390340343923195" x="528828.7610693991" y="182514.96689696593"/><node id="5221366533561754109" x="528138.2035984466" y="181044.49408189318"/><node id="5221390660672791037" x="529570.2131666606" y="182683.66407678678"/><node id="5221390321275322879" x="529036.068343383" y="181273.66243628535"/><node id="5221390725313626625" x="530315.3871633431" y="181283.92376144032"/><node id="5221390731536974337" x="530426.3882167694" y="181236.11683384067"/><node id="5221390306946441731" x="528315.3668829096" y="181864.52279367112"/><node id="5221390740348264961" x="530343.2949067286" y="182102.02459336387"/><node id="5221366498852553221" x="529047.749810302" y="181143.7581409723"/><node id="5221390294136234501" x="528015.5976327742" y="181914.43267741223"/><node id="5221390662853468677" x="529857.1594408336" y="182775.20982799534"/><node id="5221390668062851591" x="529425.5078593954" y="182400.86921221035"/><node id="5221390739891716613" x="530384.3432198729" y="181895.89990359108"/><node id="5221390696549179911" x="529547.9145340982" y="181278.94650321902"/><node id="5221390699386847639" x="529846.9301487854" y="181254.60139498493"/><node id="5221390742017425933" x="530362.5572527226" y="182196.21868786105"/><node id="5221390327711965711" x="528731.469894026" y="181975.86959050916"/><node id="5221390810057097743" x="530794.7627991063" y="182787.37318359158"/><node id="5221390339786678801" x="528726.1162469334" y="182505.86802483368"/><node id="5221390670640996881" x="529447.5250921419" y="182748.26614038757"/><node id="5221390697658860049" x="529665.5553114419" y="181356.96713596256"/><node id="5221390684145443349" x="529146.4880317239" y="181928.38585967704"/><node id="5221390705404404245" x="529484.7794305101" y="181917.43019275472"/><node id="5221390323017007641" x="528887.2775982629" y="181540.07433031226"/><node id="5221390664731591195" x="529782.8922195515" y="182592.4996235164"/><node id="5221390690432311837" x="529390.925995268" y="181302.09405135136"/><node id="5221390660649624099" x="529570.2226439759" y="182710.2321483445"/><node id="5221390328605860389" x="528835.2008794469" y="182006.26934448024"/><node id="5221390295250641447" x="527871.8652162169" y="182177.5072122963"/><node id="5221366508024816169" x="528519.4890172583" y="181117.22949550243"/><node id="5221390730428162601" x="530364.8191688865" y="181488.005006906"/><node id="5221390723175924267" x="530106.3056950173" y="181305.20147377183"/><node id="5221390344835392045" x="528332.9702703066" y="182519.29821131815"/><node id="5221390716442313261" x="530229.6655736148" y="181943.1692142447"/><node id="5221390810243523117" x="530880.3438849378" y="182818.6015924823"/><node id="5221366535213302321" x="528037.7375347303" y="181090.81161876273"/><node id="5221390741977080371" x="530355.2573483143" y="182226.63796596962"/><node id="5221366129549287989" x="529451.5546444932" y="181175.26723587897"/><node id="5221390316456452661" x="528816.9327205868" y="181737.85477243515"/><node id="5221390747643675189" x="530585.0850098252" y="182710.45517040679"/><node id="5221366535144309309" x="528052.8492284231" y="181042.7687586752"/><node id="5221390735086404159" x="530630.7647031375" y="181544.41855527984"/><node id="5221366087785751105" x="530561.4505147459" y="180946.94784430484"/><node id="5221390302088544833" x="528644.8054045705" y="182146.0609048017"/><node id="5221390755908436547" x="530135.3735420238" y="182415.47589427553"/><node id="5221390330661806667" x="528842.2873133231" y="182218.4439481098"/><node id="5221390286193795661" x="528111.8204655269" y="181360.1652039172"/><node id="5221390730393297485" x="530344.1982271369" y="181485.1475518319"/><node id="5221390322601894479" x="528996.9909099723" y="181609.87445395516"/><node id="5221390302223598161" x="528641.714766361" y="182075.8666137898"/><node id="5221390306221474389" x="528331.8143769576" y="181939.73072925868"/><node id="5221390672144917081" x="529327.8270496972" y="182691.66251478327"/><node id="5221390826368180825" x="530915.0487797626" y="181357.2204390923"/><node id="5221390671331385947" x="529334.0895792543" y="182873.93605379952"/><node id="5221390321429307997" x="529034.7982420737" y="181229.54427308054"/><node id="5221390810069918303" x="530802.0905364726" y="182794.80471179326"/><node id="5221390253350765155" x="528060.0680308127" y="182477.61341768847"/><node id="5221390671250539107" x="529333.8471680838" y="182831.96102285828"/><node id="5221390306964013671" x="528316.5209669797" y="181818.8069915698"/><node id="5221390721650410087" x="529941.010489017" y="181509.8153752308"/><node id="5221390756357366375" x="530016.5769238931" y="182503.99045650987"/><node id="5221390724377543273" x="530110.8186273624" y="181359.25375000742"/><node id="5221390313028379243" x="528666.2771237991" y="181265.1018646303"/><node id="5221390680662909543" x="529317.4003522018" y="182196.36389276636"/><node id="5221366132401717869" x="529125.9806218715" y="181081.78455754853"/><node id="5221390680616100461" x="529333.337432951" y="182164.65430354996"/><node id="5221390321017791087" x="528987.3528412997" y="181219.2597818558"/><node id="5221390300999410287" x="528481.2717828341" y="182209.51522308495"/><node id="5221390706590720623" x="529654.4950999717" y="182039.9066113882"/><node id="5221390732489007725" x="530539.3365401574" y="181474.9401643814"/><node id="5221366087345144435" x="530548.6174827376" y="181100.6567660867"/><node id="5221390698286195315" x="529794.606691962" y="181451.92921581672"/><node id="5221390806723805811" x="530907.5124826314" y="182606.82806315558"/><node id="5221390723177202295" x="530111.109402265" y="181310.89342052588"/><node id="5221390251284095609" x="528052.2747273229" y="182680.3874703198"/><node id="5221390809347687037" x="530937.0987264934" y="182820.55454048846"/><node id="5221390725307875967" x="530302.0837808548" y="181297.83230923442"/><node id="5221390302314619521" x="528593.6276791487" y="182121.20302345545"/><node id="5221390275613155969" x="527492.7131491355" y="181266.54984629783"/><node id="5221366095628198533" x="530181.525098614" y="181191.13517553313"/><node id="5221366095198839429" x="530264.7820154723" y="181215.9293343157"/><node id="5221390294259327623" x="528011.2808915009" y="181986.44038525777"/><node id="5221390757816820359" x="529996.9941762825" y="182584.96922310686"/><node id="5221366498990989967" x="529003.6565929395" y="181151.1931307938"/><node id="5221390692545569425" x="529317.8168619721" y="181603.07460176328"/><node id="5221366123765146261" x="529524.4042368643" y="181100.97211268067"/><node id="5221390756289020567" x="530026.8948618849" y="182492.8546726326"/><node id="5221390662528410263" x="529804.4078755967" y="182855.29400089843"/><node id="5221390321418191513" x="529029.5879965025" y="181221.03865971655"/><node id="5221390320340886167