<?xml version="1.0" encoding="UTF-8"?>
<!DOCTYPE network SYSTEM "http://www.matsim.org/files/dtd/network_v2.dtd">
<network>

<!-- ====================================================================== -->

	<nodes>
		<node id="1010694855" x="-15693.953025498253" y="398258.7458596347" >
		</node>
		<node id="1010694896" x="-15699.518823357997" y="398174.78268907807" >
		</node>
		<node id="1010753828" x="-33522.7484844405" y="395994.7562361787" >
		</node>
		<node id="1010753862" x="-33477.22420440952" y="395944.11379489716" >
		</node>
		<node id="1010753871" x="-46139.030620445905" y="396164.25858398055" >
		</node>
		<node id="1010754017" x="-28954.116492783127" y="395473.9980089978" >
		</node>
		<node id="1010754057" x="-46151.805355896475" y="396113.2729219846" >
		</node>
		<node id="1010754194" x="-28954.48677300557" y="395415.2427558562" >
		</node>
		<node id="1155184756" x="-26381.380418770423" y="395664.7267716449" >
		</node>
		<node id="1155184790" x="-26397.152251229796" y="395480.39949018444" >
		</node>
		<node id="1155184807" x="-26448.9253889214" y="395535.2985303272" >
		</node>
		<node id="1155184834" x="-26586.672849410505" y="395328.2913508668" >
		</node>
		<node id="1155184845" x="-26376.759638479387" y="395631.14074634615" >
		</node>
		<node id="1155420513" x="-26435.854692415625" y="395194.9958530557" >
		</node>
		<node id="1155420538" x="-20859.14305857569" y="397546.55962341983" >
		</node>
		<node id="1155420610" x="-23229.933857423253" y="398221.88335260673" >
		</node>
		<node id="1155420683" x="-25857.726933040656" y="400781.4286271851" >
		</node>
		<node id="1155420808" x="-20700.601913125778" y="397260.27373964747" >
		</node>
		<node id="1155420963" x="-26710.64320968429" y="395257.94662883884" >
		</node>
		<node id="1155420966" x="-26492.39660986804" y="398771.5187016902" >
		</node>
		<node id="1155421135" x="-24163.340096055064" y="398969.37322774675" >
		</node>
		<node id="1155421155" x="-23422.288643452513" y="398175.62536705175" >
		</node>
		<node id="1155421170" x="-22805.322132007277" y="399420.35195984645" >
		</node>
		<node id="1155421203" x="-21437.911454072804" y="397385.6781023659" >
		</node>
		<node id="1155421374" x="-24214.998231498757" y="395070.7317044999" >
		</node>
		<node id="1155421455" x="-23063.896689381567" y="399901.3493017848" >
		</node>
		<node id="1155421471" x="-21344.509612572438" y="398614.1719081266" >
		</node>
		<node id="1155421522" x="-20738.47981023841" y="399873.75736916164" >
		</node>
		<node id="1155421602" x="-24941.365743363276" y="397388.94376355014" >
		</node>
		<node id="1155421656" x="-20736.341290251527" y="399914.9376185693" >
		</node>
		<node id="1155421788" x="-20773.551173685526" y="397403.69938019506" >
		</node>
		<node id="1155421986" x="-24318.780396904564" y="395206.3213794494" >
		</node>
		<node id="1155422050" x="-20900.453410194605" y="397634.12237094925" >
		</node>
		<node id="1155422399" x="-20886.89964917366" y="397603.15556712786" >
		</node>
		<node id="1155422410" x="-20813.070207999845" y="399874.655765171" >
		</node>
		<node id="1155422474" x="-24763.43870615703" y="395038.2988155038" >
		</node>
		<node id="1155422481" x="-24695.78116224194" y="398713.08179576375" >
		</node>
		<node id="1155422514" x="-21297.041187729454" y="398591.614605266" >
		</node>
		<node id="1155422515" x="-25267.91125738778" y="397292.39015495963" >
		</node>
		<node id="1155422578" x="-20685.882659999712" y="399902.19303402473" >
		</node>
		<node id="1155422673" x="-24532.723029438173" y="395594.55778303446" >
		</node>
		<node id="1155422676" x="-24756.113563605177" y="396454.0440229131" >
		</node>
		<node id="1155422805" x="-21007.202997948392" y="398080.8155897589" >
		</node>
		<node id="1155422820" x="-22418.36752366362" y="397793.43907246744" >
		</node>
		<node id="1155422920" x="-25233.105736505124" y="397619.83207729855" >
		</node>
		<node id="1155423185" x="-24670.853586124605" y="396124.63336597726" >
		</node>
		<node id="1155423187" x="-24150.993218811927" y="398869.5894794789" >
		</node>
		<node id="1155423228" x="-21042.743927025702" y="398149.84681376826" >
		</node>
		<node id="1155423399" x="-24453.96237537579" y="396765.6493720909" >
		</node>
		<node id="1155423443" x="-25271.639221208345" y="398617.42005694995" >
		</node>
		<node id="1155423477" x="-20643.64228141983" y="397160.9933310601" >
		</node>
		<node id="1155423483" x="-25713.954729672812" y="400656.0982393513" >
		</node>
		<node id="1155423533" x="-23494.457297011802" y="400161.9134016757" >
		</node>
		<node id="1155423550" x="-24000.749332443287" y="396966.70780526975" >
		</node>
		<node id="1155423683" x="-26560.696522208687" y="398782.9647378221" >
		</node>
		<node id="1155423686" x="-23804.808897471405" y="398479.959036258" >
		</node>
		<node id="1155423811" x="-25308.986496230005" y="398125.577193466" >
		</node>
		<node id="1155423883" x="-20937.02551472897" y="399560.8897806218" >
		</node>
		<node id="1155423915" x="-24888.30293844815" y="399704.3102717688" >
		</node>
		<node id="1155423932" x="-23903.908865137433" y="400557.9866535072" >
		</node>
		<node id="1155423992" x="-24226.142256955267" y="395084.7474803046" >
		</node>
		<node id="1155424012" x="-25214.839280793676" y="400099.0756083894" >
		</node>
		<node id="1155424067" x="-25578.776731049293" y="395234.39813731" >
		</node>
		<node id="1155424113" x="-21789.387644989707" y="398853.5069362392" >
		</node>
		<node id="1155424174" x="-25515.675363287446" y="400477.7800659289" >
		</node>
		<node id="1155424183" x="-22727.996543035202" y="399312.54649708705" >
		</node>
		<node id="1155424266" x="-24506.31855853903" y="399362.39001264074" >
		</node>
		<node id="1155424490" x="-24159.406077141583" y="398881.71635556116" >
		</node>
		<node id="1155424542" x="-23776.769996144692" y="397358.75147585646" >
		</node>
		<node id="1155424544" x="-21213.279843125143" y="397283.82494383724" >
		</node>
		<node id="1155424707" x="-20649.050184558495" y="397116.0853383312" >
		</node>
		<node id="1155424710" x="-24662.90018026397" y="396044.04912195535" >
		</node>
		<node id="1155424719" x="-24972.024816335062" y="396901.6091433027" >
		</node>
		<node id="1155424734" x="-24267.05460077332" y="397413.3721418133" >
		</node>
		<node id="1155424809" x="-21027.35562844074" y="397193.5825443184" >
		</node>
		<node id="1155424841" x="-23776.30096145079" y="397358.59758654184" >
		</node>
		<node id="1155424918" x="-25189.751906698395" y="398596.82514409465" >
		</node>
		<node id="1155424924" x="-24676.616413888696" y="396421.61012420733" >
		</node>
		<node id="1155424940" x="-21567.63033386029" y="397335.84407155385" >
		</node>
		<node id="1155424996" x="-24673.485825602198" y="396195.20336355385" >
		</node>
		<node id="1155425124" x="-25910.46969350468" y="398677.3854329445" >
		</node>
		<node id="1155425177" x="-25073.085760034504" y="395156.00401075004" >
		</node>
		<node id="1155425187" x="-23070.41523785662" y="399914.42432112806" >
		</node>
		<node id="1155666627" x="-27333.123925107357" y="394543.4973408311" >
		</node>
		<node id="1155666707" x="-27174.789851266367" y="394917.91714694217" >
		</node>
		<node id="1155666714" x="-26673.723619000346" y="393943.887097829" >
		</node>
		<node id="1155666739" x="-26384.95424830838" y="400009.5577532035" >
		</node>
		<node id="1155666923" x="-27088.58501770231" y="394755.3583394745" >
		</node>
		<node id="1155667064" x="-25453.547198458866" y="401136.5416540716" >
		</node>
		<node id="1155667068" x="-25363.44990390801" y="400925.8951535187" >
		</node>
		<node id="1155667100" x="-26374.812556218705" y="401041.8530173531" >
		</node>
		<node id="1155667257" x="-27270.587538151885" y="394559.2235482443" >
		</node>
		<node id="1155667479" x="-26829.973767996533" y="394418.5829551292" >
		</node>
		<node id="1170116649" x="-14099.020040573785" y="399431.6483414597" >
		</node>
		<node id="1193195339" x="-49974.331938086834" y="399701.1101686722" >
		</node>
		<node id="1193195375" x="-49900.64410915616" y="399764.35169620294" >
		</node>
		<node id="1193195470" x="-49863.11162470415" y="399704.9282093038" >
		</node>
		<node id="1193195524" x="-49848.98558093741" y="399863.0266842634" >
		</node>
		<node id="1193195582" x="-49884.044783586694" y="399652.985761629" >
		</node>
		<node id="1193195608" x="-49921.80535075482" y="399627.154063741" >
		</node>
		<node id="1193262631" x="-50336.99600874935" y="398800.573743969" >
		</node>
		<node id="1193262693" x="-50271.535887981474" y="398792.40186228906" >
		</node>
		<node id="1193262804" x="-50269.56014691788" y="398801.7478548005" >
		</node>
		<node id="1193262874" x="-51425.828614661354" y="398172.69412422343" >
		</node>
		<node id="1193262898" x="-50136.44503884489" y="398760.7533734482" >
		</node>
		<node id="1193263020" x="-49075.16687719227" y="398644.4232216093" >
		</node>
		<node id="1203924911" x="-12777.092468952294" y="399485.7155428445" >
		</node>
		<node id="1204232419" x="-12035.301597617683" y="400122.94868838065" >
		</node>
		<node id="1204232435" x="-12835.876441456785" y="400431.8818301542" >
		</node>
		<node id="1204232466" x="-12464.035138000036" y="400470.177999918" >
		</node>
		<node id="1204232475" x="-12059.933292909933" y="400329.57702814665" >
		</node>
		<node id="1206846268" x="-39880.61783726013" y="393292.02703061106" >
		</node>
		<node id="1206846270" x="-40575.89330598421" y="394125.8455070452" >
		</node>
		<node id="1206846271" x="-40507.8189218035" y="394364.1994272338" >
		</node>
		<node id="1206846279" x="-40618.4570371203" y="394311.64546803193" >
		</node>
		<node id="1206846284" x="-40460.31611664611" y="394419.23532318114" >
		</node>
		<node id="1206846293" x="-41660.85772510717" y="393828.49729967245" >
		</node>
		<node id="1206846294" x="-39712.36311724316" y="393276.4778719213" >
		</node>
		<node id="1206846312" x="-41659.55190630769" y="393813.73751563794" >
		</node>
		<node id="1206846317" x="-39940.67456950515" y="393269.1484555826" >
		</node>
		<node id="1206846322" x="-41125.15525391052" y="393917.87209811417" >
		</node>
		<node id="1206846325" x="-39870.46899847302" y="393278.5543087879" >
		</node>
		<node id="1206846331" x="-40514.22861231846" y="394390.84471239697" >
		</node>
		<node id="1206846333" x="-40541.97883714066" y="393102.3112145316" >
		</node>
		<node id="1206846337" x="-41014.96097112057" y="392926.71913187345" >
		</node>
		<node id="1206846339" x="-41964.56297402154" y="393655.1456528671" >
		</node>
		<node id="1206846342" x="-41519.19339089363" y="392999.4178109514" >
		</node>
		<node id="1206846344" x="-39760.040444790386" y="393318.2453716504" >
		</node>
		<node id="1206846349" x="-38904.93071683409" y="393586.3777338317" >
		</node>
		<node id="1206846355" x="-40418.59463459853" y="394387.35158369836" >
		</node>
		<node id="1206846359" x="-39737.770872213005" y="393347.7969504963" >
		</node>
		<node id="1206846361" x="-39443.87591322407" y="393342.4314690401" >
		</node>
		<node id="1206846365" x="-40608.04754821095" y="394318.4510785417" >
		</node>
		<node id="1206846371" x="-40555.81025561015" y="394346.3580361076" >
		</node>
		<node id="1206846375" x="-40069.20964040287" y="393237.83743872243" >
		</node>
		<node id="1208241928" x="-14053.18748347758" y="399097.9055587288" >
		</node>
		<node id="1208241986" x="-14251.001200767409" y="398928.09028583404" >
		</node>
		<node id="1208242011" x="-14189.10248053167" y="398889.8748647165" >
		</node>
		<node id="1208242066" x="-14055.8854551728" y="399080.4595398761" >
		</node>
		<node id="1208242082" x="-14205.072155709844" y="398889.0781633174" >
		</node>
		<node id="1208242140" x="-14057.96371481038" y="399091.7092530822" >
		</node>
		<node id="1208242143" x="-14200.757113949105" y="398891.91260485514" >
		</node>
		<node id="1208242190" x="-14036.42651789065" y="399094.0451348948" >
		</node>
		<node id="1211156944" x="-14040.458846730646" y="399077.8125116936" >
		</node>
		<node id="1214281890" x="-40435.13028283708" y="394471.4270681926" >
		</node>
		<node id="1214281898" x="-38412.50908524939" y="388107.55570778286" >
		</node>
		<node id="1214317798" x="-15152.734303296194" y="399392.18787746504" >
		</node>
		<node id="1214317811" x="-15223.569623942894" y="399349.74982589664" >
		</node>
		<node id="1214317833" x="-15033.494570568728" y="399415.8124512692" >
		</node>
		<node id="1214317849" x="-15015.267953308881" y="399609.22527203057" >
		</node>
		<node id="1214317850" x="-14917.813388197916" y="399436.6180759668" >
		</node>
		<node id="1214317852" x="-15300.071833422175" y="399398.2481886096" >
		</node>
		<node id="1214317856" x="-14503.778593514988" y="399482.63226026186" >
		</node>
		<node id="1214317861" x="-14752.419800136122" y="399447.57651915" >
		</node>
		<node id="1214317873" x="-15107.043546926754" y="399681.6217128475" >
		</node>
		<node id="1214317893" x="-15268.205316986307" y="399417.5900533596" >
		</node>
		<node id="1214317894" x="-15109.019127937558" y="399620.11883365095" >
		</node>
		<node id="1214317902" x="-14696.296033616527" y="399452.2403903977" >
		</node>
		<node id="1214317912" x="-14777.82610247517" y="399439.461286677" >
		</node>
		<node id="1214317915" x="-15270.023662679829" y="399305.9465396885" >
		</node>
		<node id="1214317916" x="-14801.595198241936" y="399477.94899966" >
		</node>
		<node id="1214317925" x="-14629.35775289667" y="399362.4322525897" >
		</node>
		<node id="1214317934" x="-15252.712592449272" y="399321.58491496707" >
		</node>
		<node id="1307611602" x="-55578.92397923517" y="396671.33910840424" >
		</node>
		<node id="1307611623" x="-55948.285057165136" y="396906.87971630134" >
		</node>
		<node id="1307611643" x="-55563.49338870653" y="396671.7050224573" >
		</node>
		<node id="1470655800" x="-49227.52021978545" y="397256.19633703586" >
		</node>
		<node id="1487352014" x="-49330.78374315775" y="399053.77750916895" >
		</node>
		<node id="1487352021" x="-49416.40225714102" y="399146.8843969279" >
		</node>
		<node id="1487352022" x="-49287.81798226031" y="399148.92438894714" >
		</node>
		<node id="1487352028" x="-49060.82325832022" y="399201.45881431404" >
		</node>
		<node id="1487352029" x="-49298.259180937544" y="399261.2251268922" >
		</node>
		<node id="1487352030" x="-49309.85090964456" y="399261.0700431659" >
		</node>
		<node id="1487352031" x="-49235.79990005627" y="399260.7002704997" >
		</node>
		<node id="1487352034" x="-49232.483488479396" y="399260.9234456963" >
		</node>
		<node id="1487365599" x="-46061.37814227922" y="395930.36876050354" >
		</node>
		<node id="1487365609" x="-47403.9936901583" y="396339.7758703173" >
		</node>
		<node id="1487365611" x="-47591.19464135956" y="396508.67334556667" >
		</node>
		<node id="1487365612" x="-47647.76302481798" y="396588.54183655855" >
		</node>
		<node id="1487365649" x="-49655.64647530881" y="398931.1269104436" >
		</node>
		<node id="1487376028" x="-51722.866840378614" y="398030.2063704648" >
		</node>
		<node id="1487379986" x="-49164.09256636276" y="399152.3919879661" >
		</node>
		<node id="1487379989" x="-49161.615346521954" y="399152.25789833" >
		</node>
		<node id="1518899258" x="-47707.32551583735" y="396716.80692484387" >
		</node>
		<node id="1518899276" x="-54610.31949955871" y="399647.85278344835" >
		</node>
		<node id="1518899279" x="-55648.2618193549" y="399867.06824078213" >
		</node>
		<node id="1518899282" x="-55675.57040454383" y="399933.11598359485" >
		</node>
		<node id="1530429446" x="-14092.88413831871" y="399576.7977568766" >
		</node>
		<node id="1545696686" x="-14993.279021674884" y="391965.2346601359" >
		</node>
		<node id="1545696753" x="-16252.64600648859" y="391626.6006172497" >
		</node>
		<node id="1545696754" x="-15537.915046258015" y="391022.4168959701" >
		</node>
		<node id="1545696783" x="-16118.539410632802" y="391341.1684372561" >
		</node>
		<node id="1545696805" x="-14837.753345004516" y="392187.91540890763" >
		</node>
		<node id="1545696810" x="-15216.989240321505" y="392622.8297982739" >
		</node>
		<node id="1546168660" x="-15842.065775221039" y="394108.3743241143" >
		</node>
		<node id="1546168668" x="-15649.95666864561" y="394937.67216069816" >
		</node>
		<node id="1546168672" x="-15855.711195158714" y="394272.0592543711" >
		</node>
		<node id="1546168706" x="-16719.881723657716" y="392586.11359054706" >
		</node>
		<node id="1559984781" x="-15839.173744030646" y="392833.95666948217" >
		</node>
		<node id="1559984814" x="-16154.756476636103" y="393365.6097818362" >
		</node>
		<node id="1559984961" x="-15892.969293751463" y="393370.8675646804" >
		</node>
		<node id="1562495682" x="-15935.190194444964" y="393729.3599853879" >
		</node>
		<node id="1562497211" x="-19902.42086897418" y="395610.21087394276" >
		</node>
		<node id="1562497236" x="-18932.45911286102" y="394829.0925958435" >
		</node>
		<node id="1562497249" x="-20683.279824759404" y="396918.1852374503" >
		</node>
		<node id="1562497258" x="-16778.779341174" y="392753.5203760932" >
		</node>
		<node id="1562497263" x="-17884.73954863276" y="394046.3112968218" >
		</node>
		<node id="1562497267" x="-18386.50345186639" y="394426.66907805856" >
		</node>
		<node id="1562497268" x="-17412.855921969865" y="393685.6244502046" >
		</node>
		<node id="1589059509" x="-41371.08298022137" y="395253.35095098586" >
		</node>
		<node id="1589060622" x="-44791.278586300265" y="395775.041199294" >
		</node>
		<node id="1589060628" x="-45256.916823131265" y="397177.3841777136" >
		</node>
		<node id="1589060632" x="-45356.97044808761" y="397169.467804256" >
		</node>
		<node id="1589060635" x="-45510.465161134605" y="397081.2224680986" >
		</node>
		<node id="1589060678" x="-45562.192069578334" y="396589.8321740742" >
		</node>
		<node id="1589060686" x="-45632.387162182946" y="396278.46932113555" >
		</node>
		<node id="1589060690" x="-45232.22956705664" y="396013.1744782953" >
		</node>
		<node id="1589060694" x="-45863.80639784323" y="395844.56626208074" >
		</node>
		<node id="1589060707" x="-45008.38903260621" y="396808.81152998144" >
		</node>
		<node id="1660892452" x="-50989.24131613434" y="398599.6840882421" >
		</node>
		<node id="1660892454" x="-50976.17170304776" y="398606.66312887135" >
		</node>
		<node id="1660934790" x="-49489.41485453036" y="399450.9220550269" >
		</node>
		<node id="1667355520" x="-45927.10712399444" y="402351.1042984713" >
		</node>
		<node id="1671678204" x="-45699.95812997449" y="402299.86037121393" >
		</node>
		<node id="1707641291" x="-44592.61888368381" y="395829.20492879796" >
		</node>
		<node id="1707641312" x="-44337.16011154" y="396630.3048406766" >
		</node>
		<node id="1707641317" x="-44086.332947615185" y="397196.1094553054" >
		</node>
		<node id="1707641322" x="-41792.522064017016" y="397680.7226062313" >
		</node>
		<node id="1707641348" x="-43734.27496404888" y="398248.19646882993" >
		</node>
		<node id="1707641367" x="-45025.39891110064" y="398480.7639552714" >
		</node>
		<node id="1707641371" x="-44596.53501115518" y="398483.3969142733" >
		</node>
		<node id="1707641392" x="-43476.70767693082" y="398467.1350740759" >
		</node>
		<node id="1707641395" x="-43692.60627835931" y="398501.7886081629" >
		</node>
		<node id="1707641399" x="-53263.51511817245" y="400766.98509869096" >
		</node>
		<node id="1707641433" x="-53112.96066214307" y="401350.1904801021" >
		</node>
		<node id="1708709578" x="-39707.323625748395" y="400808.4584725346" >
		</node>
		<node id="1708709603" x="-39478.8730763513" y="402606.08900574455" >
		</node>
		<node id="1708709884" x="-36847.75273680518" y="406005.414004238" >
		</node>
		<node id="1708780994" x="-55730.78368082619" y="397879.8129636863" >
		</node>
		<node id="1708781035" x="-55919.8432830543" y="397949.12706588843" >
		</node>
		<node id="1708781040" x="-55540.1686744648" y="399258.6745622276" >
		</node>
		<node id="1708781043" x="-55297.48176933132" y="399350.69404633844" >
		</node>
		<node id="1708781074" x="-55605.324546699354" y="399780.86097192275" >
		</node>
		<node id="1708781080" x="-55759.02117159229" y="399976.4984942294" >
		</node>
		<node id="1708781144" x="-55932.18245222443" y="400398.35396857315" >
		</node>
		<node id="1787357745" x="-49862.571514251584" y="399019.011062773" >
		</node>
		<node id="1787357750" x="-49192.733635244076" y="399406.11572800274" >
		</node>
		<node id="1787357763" x="-48887.211047591234" y="399918.5037024319" >
		</node>
		<node id="1787357766" x="-48887.790431295114" y="399945.5905579658" >
		</node>
		<node id="1839751167" x="-15867.690482271428" y="393494.398383201" >
		</node>
		<node id="1839751177" x="-14715.553483029129" y="395395.7752058793" >
		</node>
		<node id="1839751179" x="-14071.70522851427" y="395272.03032780957" >
		</node>
		<node id="1839751181" x="-13715.347300635069" y="395658.11580199236" >
		</node>
		<node id="1839751187" x="-13402.243898637476" y="395323.2135860661" >
		</node>
		<node id="1839751188" x="-16616.42420335277" y="392703.94275857846" >
		</node>
		<node id="1839751190" x="-16399.68517882959" y="392177.38297069416" >
		</node>
		<node id="1839751193" x="-16625.950060865085" y="392423.62329831155" >
		</node>
		<node id="1839751194" x="-16205.56428895914" y="392757.1415705763" >
		</node>
		<node id="1839751198" x="-16404.09012740641" y="392745.6953950821" >
		</node>
		<node id="1839751200" x="-16264.930096912605" y="392802.5711988719" >
		</node>
		<node id="1839751201" x="-16304.614598381799" y="392803.89266692766" >
		</node>
		<node id="1839751202" x="-16487.066417634953" y="392756.7153793163" >
		</node>
		<node id="1839751210" x="-15704.856521387934" y="393287.71412126865" >
		</node>
		<node id="183979461" x="-57126.35807891225" y="397431.398795638" >
		</node>
		<node id="183979544" x="-55101.64381620422" y="396430.71543483326" >
		</node>
		<node id="183979559" x="-54657.38088177348" y="395981.96328222536" >
		</node>
		<node id="183987567" x="-52137.84066429763" y="394303.1497012832" >
		</node>
		<node id="1878567152" x="-57112.05005146534" y="397803.0450756511" >
		</node>
		<node id="1878567241" x="-36786.437378430215" y="401510.72088142723" >
		</node>
		<node id="1882650630" x="-56291.73689007928" y="398997.8314745449" >
		</node>
		<node id="1882650718" x="-56657.60083010286" y="403352.0209016256" >
		</node>
		<node id="1882893007" x="-43344.980422447086" y="401699.72746948106" >
		</node>
		<node id="1882893034" x="-43374.66799706948" y="401989.4406500647" >
		</node>
		<node id="1882893074" x="-43822.85544105701" y="402120.30307756393" >
		</node>
		<node id="1882893159" x="-44608.67374122981" y="402631.03869556094" >
		</node>
		<node id="1882893163" x="-44634.47157672385" y="402668.24325882853" >
		</node>
		<node id="1882893219" x="-44911.255541762745" y="403097.000521199" >
		</node>
		<node id="1882942104" x="-39995.012570279534" y="396733.3231489888" >
		</node>
		<node id="1882942133" x="-40800.615926638246" y="397046.33635224396" >
		</node>
		<node id="1882942147" x="-37699.43228448543" y="396936.9577586138" >
		</node>
		<node id="1882942159" x="-39000.57193900016" y="397150.9798970069" >
		</node>
		<node id="1882942160" x="-40146.13041497412" y="397261.9261995724" >
		</node>
		<node id="1882942217" x="-40975.46209088847" y="397412.1247899181" >
		</node>
		<node id="1882942251" x="-38349.62564929266" y="397215.7521443331" >
		</node>
		<node id="1882942284" x="-36334.72998034785" y="397115.2243433092" >
		</node>
		<node id="1882942313" x="-37921.675495298696" y="397339.28708846617" >
		</node>
		<node id="1882942316" x="-36453.315361517656" y="397207.8241611408" >
		</node>
		<node id="1882942330" x="-36466.0711113282" y="397216.7817530746" >
		</node>
		<node id="1882942384" x="-40063.9500065773" y="397635.4359961324" >
		</node>
		<node id="1882942430" x="-38910.0212805444" y="397645.1981232014" >
		</node>
		<node id="1882942507" x="-38827.91749178828" y="397936.4420205119" >
		</node>
		<node id="1882942522" x="-36579.968654101714" y="397735.8345203428" >
		</node>
		<node id="1882942528" x="-37644.97475068492" y="397837.6119018626" >
		</node>
		<node id="1882942544" x="-37148.637754769356" y="397798.31085079664" >
		</node>
		<node id="1882942568" x="-36135.724780911" y="397720.69029547536" >
		</node>
		<node id="1882942633" x="-38895.77522360964" y="398014.05469028826" >
		</node>
		<node id="1882942675" x="-38790.900373142096" y="398056.4166433875" >
		</node>
		<node id="1882942698" x="-38093.155678881914" y="397996.7078716884" >
		</node>
		<node id="1882942779" x="-36608.799167557445" y="397886.53343582596" >
		</node>
		<node id="1882942781" x="-36610.241342390014" y="397893.16138725646" >
		</node>
		<node id="1882942820" x="-36675.2032779071" y="397927.74880315864" >
		</node>
		<node id="1882942824" x="-36625.04497285845" y="397956.2398279993" >
		</node>
		<node id="1882942840" x="-36111.55198895681" y="397969.09232429677" >
		</node>
		<node id="1882942874" x="-38730.41107172542" y="398259.3195728858" >
		</node>
		<node id="1882942983" x="-36566.949678693956" y="398090.38439016725" >
		</node>
		<node id="1882943069" x="-39466.00317623577" y="398538.69597421534" >
		</node>
		<node id="1882943127" x="-39027.37133019051" y="398743.6342579674" >
		</node>
		<node id="1882943133" x="-39743.57464764675" y="398833.7904696529" >
		</node>
		<node id="1882943176" x="-39787.110819155234" y="398867.06313078664" >
		</node>
		<node id="1882943178" x="-38322.272864228" y="398734.1959663263" >
		</node>
		<node id="1882943230" x="-39824.34929741145" y="398909.1254651959" >
		</node>
		<node id="1882943246" x="-40335.78118350322" y="398963.24018030125" >
		</node>
		<node id="1882943348" x="-39728.30599693803" y="399008.0813727645" >
		</node>
		<node id="1882943532" x="-39183.76448215457" y="399158.74166139617" >
		</node>
		<node id="1882943575" x="-39278.64937019802" y="399205.18224734813" >
		</node>
		<node id="1882943634" x="-40821.41822303535" y="399376.6642685645" >
		</node>
		<node id="1882943688" x="-37907.13352741487" y="399196.4661782344" >
		</node>
		<node id="1882958454" x="-34877.51682039333" y="396921.82634904736" >
		</node>
		<node id="1882958482" x="-34489.60943252983" y="397496.6545610685" >
		</node>
		<node id="1882958483" x="-34486.83472517104" y="397510.4531874623" >
		</node>
		<node id="1882958646" x="-35715.23747700435" y="398746.9433553561" >
		</node>
		<node id="1882958775" x="-35332.44221772463" y="398865.27086253656" >
		</node>
		<node id="1882958826" x="-34847.72046399774" y="398866.4990280848" >
		</node>
		<node id="1882958909" x="-35988.110575280385" y="399069.91355678235" >
		</node>
		<node id="1882959002" x="-34443.11637880851" y="399201.21232457063" >
		</node>
		<node id="1882959051" x="-35694.87123216089" y="399703.2938519889" >
		</node>
		<node id="1882959060" x="-35701.340810222726" y="399706.3751281183" >
		</node>
		<node id="1882959074" x="-36570.80428256461" y="399796.2906660228" >
		</node>
		<node id="1882959192" x="-36200.879148825596" y="399876.16367980593" >
		</node>
		<node id="1882959194" x="-36136.805708158005" y="399871.3252468694" >
		</node>
		<node id="1882959285" x="-35322.855486340646" y="399896.2418149592" >
		</node>
		<node id="1882981884" x="-34919.99356321321" y="399437.5522335502" >
		</node>
		<node id="1882981930" x="-33392.31540419301" y="399524.8261285722" >
		</node>
		<node id="1882981951" x="-33460.82476636971" y="399563.4572628394" >
		</node>
		<node id="1882981962" x="-33461.952214872" y="399573.19023431215" >
		</node>
		<node id="1882981989" x="-34017.64653490373" y="399647.07924378" >
		</node>
		<node id="1882982059" x="-33689.95947145618" y="399666.36936383275" >
		</node>
		<node id="1882982077" x="-33425.08979618258" y="399670.570196466" >
		</node>
		<node id="1882982139" x="-34420.533790468064" y="399859.85104206647" >
		</node>
		<node id="1882982140" x="-34889.672560706036" y="399908.8187613131" >
		</node>
		<node id="1882982160" x="-33351.15061192162" y="399813.713307613" >
		</node>
		<node id="1882982174" x="-33357.982624554075" y="399829.54463820584" >
		</node>
		<node id="1882982269" x="-33405.35197806946" y="400269.4146894612" >
		</node>
		<node id="1882982276" x="-35879.76710885862" y="400521.62219534686" >
		</node>
		<node id="1882982326" x="-33551.57729594299" y="400404.66559335095" >
		</node>
		<node id="1882982383" x="-35590.5031939632" y="400799.2509153251" >
		</node>
		<node id="1882982421" x="-36587.99516230036" y="400953.178259962" >
		</node>
		<node id="1882982485" x="-33811.38725013501" y="400803.77570886037" >
		</node>
		<node id="1882982507" x="-35122.202409588324" y="400954.6980684619" >
		</node>
		<node id="1882982656" x="-34208.54894464312" y="401092.37580008205" >
		</node>
		<node id="1882982662" x="-34223.52003662684" y="401098.78826934245" >
		</node>
		<node id="1882982719" x="-34715.72397801629" y="401214.66350816656" >
		</node>
		<node id="1883005181" x="-31949.139900644193" y="398851.9431265959" >
		</node>
		<node id="1883005192" x="-32061.53891981294" y="399390.8240517362" >
		</node>
		<node id="1883005220" x="-32060.853154540702" y="399859.08480051195" >
		</node>
		<node id="1883005246" x="-32288.393708894786" y="400322.1929571377" >
		</node>
		<node id="1883052441" x="-30280.215077900095" y="400074.86915933486" >
		</node>
		<node id="1883052454" x="-30874.809460823657" y="400182.935704597" >
		</node>
		<node id="1883052506" x="-32925.35747398186" y="400557.7757975073" >
		</node>
		<node id="1883052631" x="-31128.165407442953" y="400621.27437387017" >
		</node>
		<node id="1883052688" x="-32447.547183285234" y="400851.0345163189" >
		</node>
		<node id="1883052783" x="-31559.342800635553" y="400984.276860596" >
		</node>
		<node id="1883052855" x="-32002.271404910833" y="401116.6001998255" >
		</node>
		<node id="1883052942" x="-31649.193330002832" y="401201.8630851329" >
		</node>