<?xml version='1.0' encoding='utf-8'?>
<!DOCTYPE network SYSTEM "http://www.matsim.org/files/dtd/network_v2.dtd">
<network><attributes><attribute name="crs" class="java.lang.String">{'init': 'epsg:27700'}</attribute></attributes><attributes><attribute name="simplified" class="java.lang.String">True</attribute></attributes><nodes><node id="5221390715213897737" x="530114.9364175503" y="182110.78945169633"/><node id="5221390740841185297" x="530498.9931723203" y="181968.19497664657"/><node id="5221390316643008531" x="528839.0297690196" y="181663.4701510411"/><node id="5221366087980449819" x="530494.3769313244" y="180994.04317403334"/><node id="5221390668496617503" x="529413.7366212112" y="182380.70283072535"/><node id="5221390706591776799" x="529651.46280437" y="182044.41199129983"/><node id="5221390732867379237" x="530563.0935587691" y="181424.3105215683"/><node id="5221390668059861029" x="529421.9804452797" y="182399.7729862614"/><node id="5221390688502743083" x="529227.7722171635" y="181280.47176609217"/><node id="5221390292706476083" x="527977.7448590713" y="181759.81226300081"/><node id="5221390664938463283" x="529838.4978580346" y="182493.99043439125"/><node id="5221366499700129847" x="528913.7690999118" y="181032.51949506818"/><node id="5221390338980929591" x="528666.9341015639" y="182730.46740487253"/><node id="5221390675888857143" x="529240.7752521895" y="182373.1549698001"/><node id="5221390815615696951" x="530882.5055953637" y="182252.8486896584"/><node id="5221390300934021181" x="528473.434942409" y="182256.1309937535"/><node id="5221390311898177599" x="528545.5344308126" y="181338.99151417136"/><node id="5221390670637244487" x="529444.4167384047" y="182746.02075140242"/><node id="5221390735060762699" x="530662.7803065387" y="181551.57731844997"/><node id="5221366086080004175" x="530638.8881359126" y="181041.4671007736"/><node id="5221366089500926033" x="530336.2055454496" y="181100.60935112293"/><node id="5221390337709277269" x="528817.0618721443" y="182779.83253671415"/><node id="5221390708680695893" x="529671.1820883306" y="182319.1173648624"/><node id="5221390291109167197" x="528162.0553195669" y="181928.24508952227"/><node id="5221390252998426723" x="528153.467292357" y="182351.47408795275"/><node id="5221390338624176235" x="528710.5204602806" y="182866.51721256715"/><node id="5221390321785978993" x="529072.7246993532" y="181386.5385697285"/><node id="5221366095163572341" x="530256.5933344946" y="181153.74476534798"/><node id="5221390254257528949" x="528025.9220399422" y="182626.15697786096"/><node id="5221390321570971765" x="529074.773603112" y="181244.3105826783"/><node id="5221366087093919865" x="530586.4264282907" y="181162.23112761904"/><node id="5221366098228797561" x="529941.9576698984" y="181056.70539674815"/><node id="5221390345481322619" x="528344.7055325535" y="182556.6577375107"/><node id="5221390716209692795" x="530220.7778311262" y="181980.55132126325"/><node id="5221390691366150273" x="529439.1453633189" y="181434.771603796"/><node id="5221390668038873217" x="529443.7966312798" y="182374.74878966575"/><node id="5221390721985855617" x="529979.6320471076" y="181414.62344635424"/><node id="5221390821368144001" x="530814.3638522688" y="182109.4086361223"/><node id="5221390730435010695" x="530376.069385775" y="181493.52515098255"/><node id="5221390283682586765" x="527893.6969895315" y="181392.0589626151"/><node id="5221390667686011025" x="529556.24755331" y="182473.25190070173"/><node id="5221366097819271315" x="529985.4306860772" y="181170.90687748586"/><node id="5221365994718838931" x="530780.3185679337" y="181217.19093549886"/><node id="5221366500078919835" x="528949.2629227719" y="180931.2862774774"/><node id="5221390645815074975" x="529244.8664236446" y="182958.19364754885"/><node id="5221390290310340771" x="528202.4947528378" y="181810.69228278304"/><node id="5221390691550142627" x="529468.6015849354" y="181432.16687528224"/><node id="5221390718591082661" x="529980.0304770244" y="181992.25349120144"/><node id="5221390696507867305" x="529541.2557464492" y="181334.6123365127"/><node id="5221390724856037547" x="530170.8150431785" y="181337.80244879407"/><node id="5221390688593060011" x="529209.5822222679" y="181206.85641900386"/><node id="5221390668043223211" x="529434.7965449066" y="182382.8584620562"/><node id="5221390663668629679" x="529702.360250795" y="182675.99159083003"/><node id="5221390826056818867" x="530855.4165457435" y="181252.26764797635"/><node id="5221390322306949299" x="529038.8314858144" y="181497.66711159877"/><node id="5221390321255366839" x="529018.7236328304" y="181293.74419207464"/><node id="5221390251120410811" x="528086.8881582661" y="182714.6503658155"/><node id="5221390294983663805" x="527896.5411941869" y="182057.6985548401"/><node id="5221390715651104957" x="530189.6717932539" y="182018.58506380016"/><node id="5221390327676969163" x="528752.1825259344" y="181981.996816597"/><node id="5221390252682576075" x="528240.5681788365" y="182432.4922835675"/><node id="5221390267129471181" x="527805.8539526295" y="182322.531457991"/><node id="5221390759597326543" x="529863.2883540024" y="182927.72589720297"/><node id="5221390335389810897" x="528978.577253181" y="182701.20404547"/><node id="5221390752216326351" x="530334.1684713433" y="182649.12277007406"/><node id="5221390806386876627" x="530947.1085012176" y="182545.01810915535"/><node id="5221390818418884825" x="530954.7441004144" y="182048.6790649779"/><node id="5221366087203774685" x="530528.980536075" y="181191.61495285778"/><node id="5221390279660363999" x="527767.4581311403" y="181595.2525495204"/><node id="5221390702256103647" x="529869.4457869243" y="181742.9091550124"/><node id="5221390660267188447" x="529520.2955406544" y="182674.36339776195"/><node id="5221390735700730083" x="530603.1376571916" y="181729.29867645894"/><node id="5221390695969358051" x="529502.732484402" y="181428.42242623644"/><node id="5221390267182719207" x="527828.620683873" y="182271.0117867625"/><node id="5221390303987122407" x="528586.4423335626" y="181932.94238105934"/><node id="5221366130122662127" x="529314.1423015961" y="181170.9233118348"/><node id="5221390285759217905" x="528075.7201513946" y="181444.44663925597"/><node id="5221390295289315569" x="527901.8137242689" y="182178.32564656582"/><node id="5221390332478152947" x="529048.4574980763" y="182237.5220568856"/><node id="5221390678708363509" x="529262.6241695606" y="182322.79717517865"/><node id="5221390699165819119" x="529825.7856870233" y="181325.42862817104"/><node id="5221366535357227257" x="528029.1398707256" y="181120.3964778884"/><node id="5221390358901072125" x="528623.7562129936" y="183456.22818161192"/><node id="5221366125998448895" x="529629.9705833832" y="180654.6373724775"/><node id="5221366498026037503" x="529063.8112013568" y="180876.63475896022"/><node id="5221390320282706183" x="528958.80078413" y="181477.1375036541"/><node id="5221390718570463495" x="529958.9838029478" y="182012.34317050572"/><node id="5221365994779230477" x="530760.3381647978" y="181185.9143931297"/><node id="5221390671519613197" x="529286.4137405123" y="182911.5216295463"/><node id="5221390227149512977" x="527367.7575665424" y="182985.93626039207"/><node id="5221390823636648221" x="530831.0571264907" y="181733.80449767725"/><node id="5221390753962074401" x="530263.4717087429" y="182458.130806648"/><node id="5221390726010167587" x="530285.9594226453" y="181549.42924547195"/><node id="5221366493617881381" x="528902.932313772" y="180506.09514091822"/><node id="5221366097700602151" x="530003.6061283363" y="181135.37145136588"/><node id="5221390811723161897" x="530753.1319489932" y="182710.28089243686"/><node id="5221390731850228007" x="530477.3996978309" y="181368.77127868717"/><node id="5221390741960155431" x="530345.4260813267" y="182248.5612828958"/><node id="5221390715276067111" x="530111.6567346628" y="182088.294001705"/><node id="5221390675052142903" x="529183.6485998234" y="182618.27655240888"/><node id="5221390683673493821" x="529247.9010441623" y="181996.34717812802"/><node id="5221390671325724995" x="529323.3878074767" y="182873.71498256997"/><node id="5221390662082707781" x="529743.9667410027" y="182943.81978784216"/><node id="5221390325341135181" x="528980.077137618" y="182001.62336470955"/><node id="5221390814926913869" x="530795.474213291" y="182117.81903214962"/><node id="5221390699243413839" x="529835.8554243204" y="181293.22334654705"/><node id="5221390823593926991" x="530861.7757865661" y="181699.4213915831"/><node id="5221390313000927569" x="528677.1026440221" y="181261.872063656"/><node id="5221390711181615445" x="529966.6695651389" y="182315.4004688668"/><node id="5221390671343968599" x="529338.6429694204" y="182862.45466576813"/><node id="5221390324852285785" x="529026.1108966494" y="181870.34182218253"/><node id="5221390269939376475" x="527819.7291265553" y="181790.2886618146"/><node id="5221366500044472671" x="528995.8443916427" y="180905.23912399635"/><node id="5221390327248200031" x="528699.3794672095" y="181802.0174989389"/><node id="5221390705150173541" x="529536.4600219175" y="181826.91009265493"/><node id="5221390823578329453" x="530845.6657765096" y="181697.05309544102"/><node id="5221390693537677679" x="529437.0356208327" y="181691.692484055"/><node id="5221390287086600563" x="528211.2162399808" y="181239.64482436143"/><node id="5221390251385266547" x="528032.1022651971" y="182644.15366983408"/><node id="5221390683833606521" x="529240.4054465579" y="182006.97911318258"/><node id="5221390281435529595" x="527829.915358854" y="181713.48034070426"/><node id="5221390292102660475" x="528104.2315969153" y="181798.88441161858"/><node id="5221390818673303933" x="530985.5899895804" y="181992.18700490496"/><node id="5221366535945044355" x="527904.6124338217" y="181106.7206798278"/><node id="5221390321179009419" x="528987.2445760986" y="181324.7039647564"/><node id="5221390733846184333" x="530705.1505371946" y="181263.85260569298"/><node id="5221366542494466455" x="527681.4997437221" y="181081.756001235"/><node id="5221366498287935895" x="529007.1760658037" y="180942.04381875397"/><node id="5221390256376635803" x="527667.9393981745" y="182345.05222708243"/><node id="5221365994881401245" x="530751.8538884498" y="181175.38253418065"/><node id="5221390269110387095" x="527742.8354654182" y="182031.78875619924"/><node id="5221390269161939359" x="527761.421521127" y="181972.13199576212"/><node id="5221390269906002337" x="527804.1802664953" y="181839.75273512147"/><node id="5221390667587551653" x="529496.745526206" y="182505.71831573488"/><node id="5221390726809477541" x="530142.3950286413" y="181606.00633291842"/><node id="5221390814341259691" x="530780.0582774617" y="182319.2765225644"/><node id="5221366128944480689" x="529431.6546663108" y="180981.09650504083"/><node id="5221366120366391729" x="529844.328686712" y="180958.53716931457"/><node id="5221390690365931953" x="529381.5447429748" y="181202.33530067746"/><node id="5221390330495705523" x="528768.2239139748" y="182214.0275219517"/><node id="5221390691068010937" x="529474.6733027245" y="181320.83250237734"/><node id="5221366533441388989" x="528204.7637111603" y="181065.05601660133"/><node id="5221390723438002621" x="530058.0529629783" y="181374.61899000907"/><node id="5221366497056448961" x="528987.1089166345" y="180824.24605281278"/><node id="5221366134281929157" x="529287.0057474164" y="180713.0686470131"/><node id="5221390820270383557" x="530947.1715259356" y="181950.73590513773"/><node id="5221366129281409481" x="529474.3858837992" y="181063.3772623365"/><node id="5221390698600325579" x="529711.1260866077" y="181363.87131359655"/><node id="5221366501663097295" x="528694.0635380745" y="181154.4169243694"/><node id="5221390668492898767" x="529406.7654116428" y="182384.53837486578"/><node id="5221366089657737683" x="530384.2508061834" y="181068.71982104756"/><node id="5221390821587878357" x="530777.3307274996" y="181983.2016346068"/><node id="5221390281508110811" x="527891.4644958354" y="181732.3986879465"/><node id="5221390690763194841" x="529425.2381617886" y="181223.60277377814"/><node id="5221390298238403037" x="528185.6012437306" y="182194.01690251386"/><node id="5221390757921300957" x="530004.5334804102" y="182602.52088117116"/><node id="5221390281441509857" x="527839.4526214907" y="181725.71094320674"/><node id="5221390306962235879" x="528318.1570687807" y="181829.15263834555"/><node id="5221390734230536679" x="530620.0380376324" y="181415.04858115554"/><node id="5221390670511137257" x="529358.1052766729" y="182805.52011096972"/><node id="5221390311918780909" x="528534.0703240423" y="181335.33111796278"/><node id="5221390297268593141" x="528087.4743752877" y="182089.68718950386"/><node id="5221390691403760121" x="529397.6706307392" y="181422.20430539863"/><node id="5221390340343923195" x="528828.7610693991" y="182514.96689696593"/><node id="5221366533561754109" x="528138.2035984466" y="181044.49408189318"/><node id="5221390321275322879" x="529036.068343383" y="181273.66243628535"/><node id="5221390725313626625" x="530315.3871633431" y="181283.92376144032"/><node id="5221390731536974337" x="530426.3882167694" y="181236.11683384067"/><node id="5221366498852553221" x="529047.749810302" y="181143.7581409723"/><node id="5221390294136234501" x="528015.5976327742" y="181914.43267741223"/><node id="5221390662853468677" x="529857.1594408336" y="182775.20982799534"/><node id="5221390668062851591" x="529425.5078593954" y="182400.86921221035"/><node id="5221390739891716613" x="530384.3432198729" y="181895.89990359108"/><node id="5221390327711965711" x="528731.469894026" y="181975.86959050916"/><node id="5221390810057097743" x="530794.7627991063" y="182787.37318359158"/><node id="5221390339786678801" x="528726.1162469334" y="182505.86802483368"/><node id="5221390670640996881" x="529447.5250921419" y="182748.26614038757"/><node id="5221390697658860049" x="529665.5553114419" y="181356.96713596256"/><node id="5221390328605860389" x="528835.2008794469" y="182006.26934448024"/><node id="5221366508024816169" x="528519.4890172583" y="181117.22949550243"/><node id="5221390344835392045" x="528332.9702703066" y="182519.29821131815"/><node id="5221390716442313261" x="530229.6655736148" y="181943.1692142447"/><node id="5221366535213302321" x="528037.7375347303" y="181090.81161876273"/><node id="5221366129549287989" x="529451.5546444932" y="181175.26723587897"/><node id="5221366535144309309" x="528052.8492284231" y="181042.7687586752"/><node id="5221390755908436547" x="530135.3735420238" y="182415.47589427553"/><node id="5221390330661806667" x="528842.2873133231" y="182218.4439481098"/><node id="5221390286193795661" x="528111.8204655269" y="181360.1652039172"/><node id="5221390302223598161" x="528641.714766361" y="182075.8666137898"/><node id="5221390306221474389" x="528331.8143769576" y="181939.73072925868"/><node id="5221390671331385947" x="529334.0895792543" y="182873.93605379952"/><node id="5221390253350765155" x="528060.0680308127" y="182477.61341768847"/><node id="5221390671250539107" x="529333.8471680838" y="182831.96102285828"/><node id="5221390756357366375" x="530016.5769238931" y="182503.99045650987"/><node id="5221390313028379243" x="528666.2771237991" y="181265.1018646303"/><node id="5221366132401717869" x="529125.9806218715" y="181081.78455754853"/><node id="5221366087345144435" x="530548.6174827376" y="181100.6567660867"/><node id="5221390698286195315" x="529794.606691962" y="181451.92921581672"/><node id="5221390806723805811" x="530907.5124826314" y="182606.82806315558"/><node id="5221390723177202295" x="530111.109402265" y="181310.89342052588"/><node id="5221390251284095609" x="528052.2747273229" y="182680.3874703198"/><node id="5221390725307875967" x="530302.0837808548" y="181297.83230923442"/><node id="5221390302314619521" x="528593.6276791487" y="182121.20302345545"/><node id="5221390275613155969" x="527492.7131491355" y="181266.54984629783"/><node id="5221390757816820359" x="529996.9941762825" y="182584.96922310686"/><node id="5221366498990989967" x="529003.6565929395" y="181151.1931307938"/><node id="5221366123765146261" x="529524.4042368643" y="181100.97211268067"/><node id="5221390756289020567" x="530026.8948618849" y="182492.8546726326"/><node id="5221390662528410263" x="529804.4078755967" y="182855.29400089843"/><node id="5221390321418191513" x="529029.5879965025" y="181221.03865971655"/><node id="5221390320340886167" x="528966.7250815101" y="181417.27432264213"/><node id="5221366536373625509" x="527973.9529677526" y="181015.1312142618"/><node id="5221390344606057129" x="528263.3772125398" y="182443.26568155095"/><node id="5221390300403933867" x="528381.8973555863" y="182226.82222275174"/><node id="5221390753664557749" x="530322.4171995565" y="182492.92376901116"/><node id="5221390329416901305" x="528670.1734841614" y="182066.1912978019"/><node id="5221390321196098235" x="528992.7897741951" y="181315.16221598902"/><node id="5221366535845356221" x="527956.8080830364" y="181161.79773587832"/><node id="5221390322186281667" x="529056.5305429436" y="181438.34756965615"/><node id="5221390362004112069" x="528744.9521063042" y="183058.07326121873"/><node id="5221390346506265285" x="528296.3927899706" y="182703.78014075034"/><node id="5221366089716925137" x="530400.0743521529" y="181058.61137051455"/><node id="5221390815829549787" x="530809.6799786016" y="182282.3700708027"/><node id="5221366541857301213" x="527807.7651571226" y="181118.54248760716"/><node id="5221390833228366559" x="531125.5078739498" y="181608.50430839637"/><node id="5221366087963206373" x="530504.8299291455" y="181010.278268288"/><node id="5221390253310542567" x="528080.1526904576" y="182458.20136380178"/><node id="5221390718733091561" x="529948.8807767286" y="182026.8850989769"/><node id="5221366132001514221" x="529167.9990253581" y="181103.51465375925"/><node id="5221366533408293619" x="528197.0236518605" y="181088.89840023965"/><node id="5221390717109404407" x="530169.5918119445" y="181901.25156548305"/><node id="5221390741532730103" x="530414.3004069611" y="182130.17372735753"/><node id="5221390307932431103" x="528436.79935099" y="181756.9322529261"/><node id="5221390679263486719" x="529358.4858929462" y="182350.56412935915"/><node id="5221390296136229635" x="527953.8754173008" y="182193.33488248585"/><node id="5221390668043166473" x="529436.2121985899" y="182383.70057866926"/><node id="5221390251126842123" x="528077.2910995043" y="182707.085483371"/><node id="5221390261914362637" x="527512.2127933466" y="182661.72650509392"/><node id="5221390285836034835" x="528100.4067756436" y="181397.51995365473"/><node id="5221390683274543891" x="529206.4179827718" y="181853.54248577188"/><node id="5221390672727704343" x="529215.5332531705" y="182772.1271361296"/><node id="5221390746414367511" x="530578.139069438" y="182586.12238550332"/><node id="5221390286647558939" x="528172.0481071713" y="181169.45526933653"/><node id="5221390818657403685" x="530982.4778737349" y="181999.35919149045"/><node id="5221390725984961327" x="530307.7955852635" y="181506.0122572998"/><node id="5221366536364401473" x="527951.5619583422" y="181010.9403573589"/><node id="5221390671106777921" x="529363.3468114573" y="182852.2917988515"/><node id="5221390675051299653" x="529180.2912795249" y="182617.97946914512"/><node id="5221390660167746375" x="529497.0951854564" y="182671.20288552478"/><node id="5221366542375789385" x="527711.3379047957" y="181090.24713586702"/><node id="5221390812533351237" x="530825.4160321443" y="182673.22615020268"/><node id="5221390718593131341" x="529985.202020712" y="181992.69832225703"/><node id="5221390327843046235" x="528668.5960698794" y="181957.26252443867"/><node id="5221390297450079069" x="528132.3197482317" y="182150.99802327348"/><node id="5221390324722811743" x="528977.9318959983" y="181860.08101886453"/><node id="5221366089201230689" x="530380.8837669479" y="181216.91517261218"/><node id="5221390715897611105" x="530225.2359043112" y="182068.80477764294"/><node id="5221390675903890275" x="529231.4185037519" y="182400.72464193258"/><node id="5221390819445572447" x="531017.5114775838" y="181922.10307964974"/><node id="5221390302315692901" x="528591.0790681856" y="182128.79244635557"/><node id="5221390755566953317" x="530096.426950766" y="182476.05273610575"/><node id="5221390812685214563" x="530844.1899889252" y="182643.43106347485"/><node id="5221390678522217321" x="529167.7827216893" y="182307.4665651084"/><node id="5221390726277243771" x="530233.5573056077" y="181619.16414735775"/><node id="5221366639331107717" x="527081.1140333575" y="180928.58011610497"/><node id="5221390826261881737" x="530917.0080787884" y="181352.48087695224"/><node id="5221390700893078413" x="529741.7652366026" y="181516.34920926281"/><node id="5221390335349302159" x="528973.4885300015" y="182701.0649686841"/><node id="5221390671206564751" x="529369.5430756374" y="182843.30149130482"/><node id="5221390340209755029" x="528826.0680185185" y="182587.57839418738"/><node id="5221390320439157657" x="528976.1319888262" y="181377.93669028423"/><node id="5221390731535958937" x="530425.9023203941" y="181233.70258084632"/><node id="5221390328847541147" x="528844.5668253427" y="182137.39805267774"/><node id="5221390727996629925" x="530298.6034800706" y="181728.94749152288"/><node id="5221390292163584935" x="528061.6598863926" y="181777.6905678255"/><node id="5221390282261963689" x="528012.5293435248" y="181678.48145248764"/><node id="5221390280232649645" x="527687.1193678875" y="181571.21530904947"/><node id="5221390664399848361" x="529833.9817813468" y="182648.9324993487"/><node id="5221390662499369903" x="529823.4947697178" y="182825.35493250756"/><node id="5221366131975373745" x="529152.5595735875" y="181051.45058500557"/><node id="5221390696727298987" x="529545.7974149468" y="181278.2370813269"/><node id="5221390664492901295" x="529842.4237089141" y="182632.58525122335"/><node id="5221366535941342137" x="527905.7037727663" y="181101.9307807217"/><node id="5221390671484060601" x="529322.3135431263" y="182881.65794963535"/><node id="5221390312744625093" x="528604.8846049928" y="181241.2709920361"/><node id="5221390809943729095" x="530808.3610077092" y="182753.15100331517"/><node id="5221390252964635595" x="528149.1731502184" y="182388.6000083984"/><node id="5221390664385938385" x="529825.1755539235" y="182664.06464011746"/><node id="5221366096751789013" x="530058.2165496191" y="180968.35336633248"/><node id="5221390687686689751" x="529183.9986175025" y="181357.11634793464"/><node id="5221390737181565913" x="530674.4235111915" y="181900.83700612036"/><node id="5221390330294158299" x="528732.0249357017" y="182334.80927380128"/><node id="5221390256367141851" x="527679.9545277482" y="182334.88252005004"/><node id="5221390305980351455" x="528362.2281606379" y="182032.50468666118"/><node id="5221390667155547107" x="529511.5293339511" y="182660.92923274444"/><node id="5221390252696527849" x="528228.6070529362" y="182428.46960512106"/><node id="5221390348951651307" x="528521.409290165" y="182686.95084128377"/><node id="5221390671176238061" x="529391.8596212183" y="182829.63630856667"/><node id="5221390809971049455" x="530807.5641013818" y="182761.48529412586"/><node id="5221390831131698163" x="531074.0735667199" y="181783.80917285336"/><node id="5221390680362107893" x="529372.1132527826" y="182100.90640925668"/><node id="5221390329090892793" x="528779.1071413067" y="182152.13243042218"/><node id="5221390295637984249" x="527838.9356030673" y="182240.112294387"/><node id="5221390681522021371" x="529418.5462679856" y="182025.6120815025"/><node id="5221366501085012997" x="528818.3522449159" y="181183.75949639408"/><node id="5221390715282859017" x="530114.0618509044" y="182090.04685985768"/><node id="5221390730695844875" x="530343.7973286556" y="181377.9555828268"/><node id="5221390301002736653" x="528486.4737434753" y="182214.42427683785"/><node id="5221390814606779407" x="530722.6942917987" y="182252.91770567448"/><node id="5221390815723308047" x="530871.1540640142" y="182338.42377184663"/><node id="5221390330296878097" x="528740.6795875055" y="182337.34001432755"/><node id="5221366498689885203" x="529057.1956755584" y="181088.62511014513"/><node id="5221390281238414357" x="527816.3156469205" y="181609.96773285215"/><node id="5221390717019202583" x="530181.5500108594" y="181909.96023619157"/><node id="5221366120313971737" x="529833.9734239122" y="180952.19399078883"/><node id="5221390671200601113" x="529377.3778729498" y="182819.47380784655"/><node id="5221390267411260443" x="527783.2143290752" y="182248.8999913875"/><node id="5221390675674735641" x="529223.8031234867" y="182483.89511529222"/><node id="5221366120998405151" x="529826.7250025508" y="181193.0520854636"/><node id="5221390833186055195" x="531123.3175691434" y="181663.44676791102"/><node id="5221390752994862117" x="530451.118692033" y="182541.80000707053"/><node id="5221366087149667373" x="530562.3172832764" y="181231.67328992486"/><node id="5221390670640677941" x="529450.4932594444" y="182750.40056958603"/><node id="5221390726667371577" x="530153.7972829011" y="181534.08896410128"/><node id="5221390337048527933" x="528919.6562577399" y="182699.54014850542"/><node id="5221390660919010365" x="529641.1311480808" y="182760.39596907457"/><node id="5221390299873788993" x="528363.8973113946" y="182100.45484138164"/><node id="5221390647243441221" x="529248.7472468832" y="182971.16451135935"/><node id="5221390301934535751" x="528583.4474920803" y="182152.15031384933"/><node id="5221390820949206083" x="530895.2911311877" y="181936.34797812888"/><node id="5221390698304627785" x="529779.1705474352" y="181433.39691967634"/><node id="5221390660138132561" x="529478.4891269885" y="182678.05941818788"/><node id="5221390251567146067" x="528043.6152861458" y="182500.16892832785"/><node id="5221390329111471187" x="528769.5219135868" y="182118.93999768945"/><node id="5221390699842094165" x="529833.2923932091" y="181377.3582109433"/><node id="5221390722992604249" x="530061.5198946788" y="181236.04488447867"/><node id="5221366124386444379" x="529519.0080065847" y="180935.04622806777"/><node id="5221390302197793883" x="528635.8780562694" y="182077.02824413922"/><node id="5221390747455890525" x="530679.9507865324" y="182682.88244167005"/><node id="5221390284825601119" x="527994.6724477193" y="181229.43458429497"/><node id="5221390257005585503" x="527652.3543766715" y="182524.14908231155"/><node id="5221390747081344093" x="530609.8941702519" y="182594.71232621832"/><node id="5221390667243398241" x="529505.4312186392" y="182657.09344371298"/><node id="5221390682848994417" x="529296.8773176371" y="181921.98929179955"/><node id="5221390820777223283" x="530839.7969121914" y="181905.91878449934"/><node id="5221366509496673397" x="528459.0483842611" y="181104.51938760112"/><node id="5221390692577379445" x="529353.0620534498" y="181635.93938941584"/><node id="5221390685162546295" x="529097.9803152932" y="181811.82117468072"/><node id="5221390320462881913" x="528983.539124716" y="181358.19902287872"/><node id="5221366498187592827" x="529068.7627069247" y="180934.12312212033"/><node id="5221390754907268219" x="530208.0070340019" y="182586.75478402828"/><node id="5221390285022233725" x="528050.9853066043" y="181191.40642104036"/><node id="5221366097087677573" x="530067.8033995548" y="181095.91703905346"/><node id="5221366501475738759" x="528783.0892643844" y="181175.4323982339"/><node id="5221390759149405317" x="529932.1068071442" y="182822.58304713917"/><node id="5221390717278766223" x="530103.3315914971" y="181854.69300639746"/><node id="5221390321378804881" x="529011.5251165715" y="181205.61266311357"/><node id="5221390667253384339" x="529495.5041672408" y="182665.57982617768"/><node id="5221390675770713237" x="529224.3340528032" y="182471.18852490862"/><node id="5221390329354667175" x="528732.8108535917" y="182080.01644508267"/><node id="5221366127047247019" x="529459.5204788297" y="180641.48360595742"/><node id="5221390283856487595" x="527930.3392528256" y="181401.96814054286"/><node id="5221390806142231723" x="530927.1128209734" y="182429.0710614855"/><node id="5221390270449919153" x="527697.9163570404" y="181825.19113427302"/><node id="5221390671258887347" x="529332.8523931002" y="182817.45340718637"/><node id="5221390675271984305" x="529221.3437965" y="182559.58363216318"/><node id="5221390317799515317" x="528677.3107797084" y="181579.2253625029"/><node id="5221366087074620601" x="530584.129372835" y="181184.133971042"/><node id="5221390816474252473" x="530967.8866505607" y="182309.79656901618"/><node id="5221390304891946183" x="528479.4260202299" y="181900.59647466277"/><node id="5221390747093099723" x="530586.4808150942" y="182588.34114194516"/><node id="5221366120914355405" x="529881.45321784" y="181144.29711774655"/><node id="5221390320311510221" x="528959.8490448963" y="181463.57207540591"/><node id="5221390806063867087" x="530964.5157060713" y="182474.1304454442"/><node id="5221390675082413265" x="529194.121822636" y="182618.86631471413"/><node id="5221390663757448405" x="529714.2779251912" y="182659.9446029812"/><node id="5221390292669605079" x="527984.3081833404" y="181773.55947003898"/><node id="5221390806708520151" x="530894.94779464" y="182592.95097181614"/><node id="5221390346866861273" x="528284.9745583915" y="182713.43995698576"/><node id="5221390722204173531" x="529917.6652520113" y="181398.52391940914"/><node id="5221390297700893921" x="528150.2124765322" y="182108.8353924256"/><node id="5221390726052267235" x="530280.4043745289" y="181545.40358282946"/><node id="5221390678449448167" x="529192.0131331305" y="182272.1803036178"/><node id="5221366097082451179" x="530072.8636410062" y="181090.1734831605"/><node id="5221390308844176623" x="528358.6137082786" y="181480.84673671413"/><node id="5221390737178281211" x="530670.3305784238" y="181911.38325279544"/><node id="5221390667556111625" x="529510.3790994944" y="182454.42984788388"/><node id="52213907171292623